92
 energy: -147.310167169482 gnorm: 0.000033830946 xtb: 6.7.1 (edcfbbe)
C           -0.48030820346647        2.93425270205347        1.42841337562631
C           -0.41937204888085        2.26684061306043        0.04237736527760
C           -0.58037398550426        3.32389498174490       -1.06520908389454
C            0.93111717340877        1.59872759888686       -0.12698874865076
C            2.07750650217157        2.37485332594423       -0.06296320169453
C            3.34349958928399        1.83893123429106       -0.26019983723446
N            4.47460703073759        2.66476155890638       -0.19852629904994
C            5.60916123603752        2.42746715799154        0.54970854687523
C            5.89293745626681        1.38235360682439        1.41722299616967
C            7.11158200756903        1.39700206166169        2.06776378188723
C            8.02875145391928        2.42738427106579        1.87184809435488
C            7.74320733090761        3.48093245752342        1.02687244520277
C            6.52455387416020        3.48875995271972        0.36113884523717
C            5.90334624749040        4.40491461385804       -0.55342163539489
C            6.30424362382633        5.60590750899316       -1.12391747304284
C            5.45046242237570        6.23711660674232       -2.00599715552270
C            4.21750668521500        5.67732881635946       -2.33433303798249
C            3.79645651733444        4.48391942949623       -1.78028482647039
C            4.63934812993350        3.85733450980781       -0.87309881453613
C            3.46473509760182        0.48197119784146       -0.53444166767951
C            2.33788056497993       -0.30838357539112       -0.58396424983366
C            1.06421453186015        0.22719266461349       -0.36886530844555
N           -0.05119852898636       -0.59718861644526       -0.42758700297152
C            0.12775966865500       -1.98406933080233       -0.65653357296274
C           -0.22704062916253       -2.53509110293511       -1.88574276222956
C           -0.05753247045175       -3.89285112717357       -2.11547186415276
C            0.47161862410257       -4.66903852365905       -1.11152704674728
C            0.83797504855763       -4.13901798588400        0.12390503621531
C            0.65915519905314       -2.78180357013618        0.35348366717843
C            1.38261224661225       -5.12332424768377        1.05903824875344
C            1.83430990163129       -4.89020593353425        2.35291256102355
C            2.32271039482795       -5.95030934109538        3.10032163886928
C            2.36694593316581       -7.23329316614773        2.57666937155286
C            1.91915099760782       -7.47632243865835        1.28365628705905
C            1.43647381535280       -6.41893832802195        0.55100545820089
S            0.80090533335666       -6.43580921573888       -1.12960345569240
O            1.83881376633197       -6.75283757865853       -2.07098666976007
O           -0.42422311171610       -7.18160994384247       -1.21225650175068
C           -1.33710406493926       -0.09782295019566       -0.26876090118422
C           -2.42935615556065       -0.97054274818948       -0.28480692284363
C           -3.71710174659684       -0.50859667610861       -0.12595246817746
C           -3.94479941079383        0.85101447162575        0.04974221333783
N           -5.24538744240325        1.34867672074570        0.21058904519930
C           -6.31762968178110        1.09488836491612       -0.61997381349864
C           -6.37298078748008        0.34719589444668       -1.78751100271173
C           -7.58378203039037        0.27288368989148       -2.44848819749501
C           -8.71552379914965        0.93013260664754       -1.97031588408137
C           -8.66140898189757        1.69261606382281       -0.82092660482354
C           -7.45538993104791        1.78271388613036       -0.13831668860495
C           -7.03939205457393        2.47909852926751        1.04649869350152
C           -7.69699484350265        3.29712032170037        1.95582193072030
C           -6.98727308138245        3.79968324155069        3.02788177209283
C           -5.64252926172406        3.48305127875127        3.20864500246663
C           -4.96643417653269        2.67172616635544        2.31804018287964
C           -5.66790200528499        2.18376647923164        1.22446605773594
C           -2.85917546309460        1.71650382537414        0.08183400797266
C           -1.55545809654404        1.26782082732277       -0.05857018548613
H            0.32659074267255        3.65097215029852        1.55105636595675
H           -0.39044982634366        2.17976932628060        2.20790037096211
H           -1.42130181115896        3.45993774824758        1.56405010214863
H           -0.51226851610623        2.85009809767989       -2.04279207831319
H           -1.54370403661129        3.82033901365405       -0.99187567486471
H            0.19558610951591        4.08094270107196       -0.99379003594585
H            2.00208328414188        3.42956780376515        0.15064720543405
H            5.18170218351281        0.58771491404132        1.58631111883709
H            7.35806942795668        0.59295071444769        2.74572490102710
H            8.97199527225751        2.40063853647767        2.39689503554064
H            8.44819719682295        4.28625520994352        0.88565201747441
H            7.26695835857041        6.03080302480079       -0.88277949412760
H            5.74193162432492        7.17310961225946       -2.45878447624086
H            3.57834802631056        6.18573271433904       -3.04132473955765
H            2.84909316299688        4.04666421354629       -2.05805529170641
H            4.43619092974659        0.05295924136762       -0.72504250691743
H            2.44638856648634       -1.35672043153249       -0.81409870834788
H           -0.63654043402147       -1.89473090905020       -2.65203656234817
H           -0.32625148641702       -4.33891942676358       -3.05962981700633
H            0.92637735433633       -2.33128296514760        1.29702365608739
H            1.80730134116449       -3.89752615566892        2.77478952770852
H            2.67396055246775       -5.77282532916180        4.10578605933329
H            2.75045220808216       -8.04602079198759        3.17393437069218
H            1.94440057220708       -8.46506611076725        0.85397691882471
H           -2.26672232205283       -2.03001628121143       -0.40604278297130
H           -4.54448904868595       -1.20102279699531       -0.12150828870936
H           -5.49712232876610       -0.15273003394856       -2.17308426719414
H           -7.65419611484932       -0.30539071426848       -3.35805109212071
H           -9.64418838553721        0.84483894074713       -2.51472934015828
H           -9.53497017245593        2.21291210460449       -0.45795543824212
H           -8.74332840657722        3.52866369297257        1.82515194212953
H           -7.47929096751657        4.43965190613018        3.74514343205359
H           -5.11794165581653        3.87746415240335        4.06666213477318
H           -3.93010734429179        2.41407640088486        2.47812248608348
H           -3.05489382899164        2.76892601313689        0.21556034050515
