92
 energy: -147.309943712550 gnorm: 0.000055982461 xtb: 6.7.1 (edcfbbe)
C           -0.02798483289724        2.37214191334519        1.46929906617307
C            0.00858220853582        1.80251909537656        0.03954862218857
C            0.05163493750825        2.94773368297063       -0.98825328648218
C            1.26017608640306        0.95879124040024       -0.11051300563207
C            2.49982394354464        1.54900663735821        0.07455308020173
C            3.68290436133750        0.82730758805554       -0.02575117779771
N            4.91337480499628        1.46408601038698        0.18891775070000
C            5.22947933746168        2.25910609983064        1.27149943215208
C            4.47269599103289        2.56809044765214        2.39317472492501
C            5.04267932926381        3.38298796556168        3.35212171456105
C            6.33815694427952        3.87612675377833        3.21135663878152
C            7.10543672542561        3.55117504996623        2.11081518415364
C            6.55439910010871        2.73377480534986        1.13273084932556
C            7.05382651990241        2.19220480490740       -0.09964494909695
C            8.26319601893828        2.30554995313841       -0.77281627211414
C            8.41206599388901        1.65271221401535       -1.97983609738114
C            7.36895098085267        0.90629200451160       -2.52406882988570
C            6.15681753133100        0.77866220954936       -1.87378673357403
C            6.00900114034058        1.41327960970603       -0.64862790225939
C            3.62395719903959       -0.52599557103924       -0.33631176797823
C            2.40151044241240       -1.12586807004738       -0.54485634535235
C            1.21118055654811       -0.40217615170200       -0.43074120340027
N           -0.00180278279131       -1.03965283939218       -0.63654682785725
C           -0.00520913117243       -2.41841594937151       -0.98097735193996
C            0.01240553440916       -2.79343203689761       -2.32108763083673
C            0.01173447139374       -4.13792729744214       -2.66600209774613
C           -0.00535833349921       -5.07397113568874       -1.65938713913541
C           -0.02311510971334       -4.72044091163907       -0.31192629929507
C           -0.02384358307747       -3.37432114728280        0.02954537995653
C           -0.03842934358173       -5.85998446697541        0.60531387076583
C           -0.05621451109408       -5.81735207245422        1.99469220773216
C           -0.06803623872244       -7.00573761127497        2.70786701594180
C           -0.06230229811557       -8.22983647861718        2.05688013517083
C           -0.04447137250688       -8.28303030739483        0.66821581383548
C           -0.03296631434197       -7.09953566412131       -0.02964025383316
S           -0.00854670339144       -6.86585868717665       -1.81096058666465
O            1.22691704507565       -7.33147650420650       -2.37683994571775
O           -1.23121558528250       -7.32383373821344       -2.40989532571450
C           -1.21002372907038       -0.36982718538548       -0.52968608972022
C           -2.40555129102555       -1.05992677982374       -0.74892121927194
C           -3.62374662677360       -0.42299627477451       -0.65897786271604
C           -3.67289804354066        0.92517421247120       -0.32520370477044
N           -4.89864677726957        1.59841879644589       -0.22473693633381
C           -5.20942259808276        2.79799208488786       -0.83202425595760
C           -4.45086181208793        3.57424064081630       -1.69707466336881
C           -5.01522047347800        4.73747472771768       -2.18374337013130
C           -6.30684997246783        5.12277830308376       -1.83078024500647
C           -7.07598173772990        4.34188056251144       -0.99171326817907
C           -6.53052457445444        3.16787332637945       -0.48899410459171
C           -7.03338247711490        2.13239353932094        0.36910089481924
C           -8.24144286149779        1.93810281420559        1.02581265708274
C           -8.39470660397559        0.81238860176310        1.80978477311737
C           -7.35705123203143       -0.10599715825762        1.95515011850121
C           -6.14625434727131        0.06521002397979        1.31237708014565
C           -5.99410428793117        1.18280547572232        0.50401120832457
C           -2.48460912206990        1.60712450185333       -0.09387219202648
C           -1.24920942259020        0.98915900456807       -0.19984908776017
H            0.84426586458381        2.99066161748594        1.66156754164949
H           -0.04146160516361        1.55887095249215        2.19270422810514
H           -0.91385622679870        2.98153141086825        1.62309701105979
H            0.06001924068901        2.54032161169246       -1.99757179903628
H           -0.81580894677859        3.59356029065698       -0.88391106111550
H            0.94253418750576        3.55515104502983       -0.85706969669772
H            2.56719504962142        2.60277303468136        0.29567433823131
H            3.47583264845853        2.17347840128700        2.52161750103271
H            4.47246947836309        3.64069706539485        4.23270295294749
H            6.74653660133788        4.51321178827024        3.98172346913183
H            8.11525640111877        3.91937091564849        2.00975535799127
H            9.06615556353124        2.89612040716712       -0.35801078057462
H            9.34544233425030        1.72516473849576       -2.51802293783832
H            7.51030061850176        0.41865454450931       -3.47743688214357
H            5.34878552535034        0.21182007519069       -2.31125267525112
H            4.53090052465986       -1.10652061314265       -0.40275595077691
H            2.36642852561028       -2.17587956720946       -0.79129281480775
H            0.02591595894578       -2.02887743549095       -3.08267222344847
H            0.02516457834675       -4.45247439295103       -3.69727559917231
H           -0.03661653519588       -3.05409864603787        1.05993982460060
H           -0.06045181333481       -4.87292231908431        2.51629916420387
H           -0.08170634413610       -6.97627720123088        3.78709609796102
H           -0.07150376411048       -9.14447216330435        2.62929169311909
H           -0.03944505452883       -9.22273268978527        0.13925982720261
H           -2.37753446667475       -2.10761634832798       -1.00601046788156
H           -4.53486377592520       -0.96504909970162       -0.85895989078686
H           -3.45733770282216        3.27309977834646       -1.99386141418963
H           -4.44367547904655        5.36040933716817       -2.85618195657980
H           -6.71087432515496        6.04115322642216       -2.23008409647862
H           -8.08302085124103        4.63147086868335       -0.73182918015737
H           -9.04020304343867        2.65732807757763        0.92459330170380
H           -9.32731828532788        0.64057288652075        2.32634609914149
H           -7.50176411023104       -0.97015434909155        2.58693004270751
H           -5.34235105382468       -0.64343641571313        1.44393550478979
H           -2.54433079051151        2.64811950506226        0.18294528232672
