  93
       -141.74868673
 C          7.2274401963        4.1225656585        0.6658196522
 C          6.5907461861        3.2313342321       -0.4162283418
 C          6.7062708170        3.9020559596       -1.7973661297
 C          5.1231378493        3.0461166399       -0.0838800959
 C          4.3002928683        4.1613583486        0.0043148664
 C          2.9641805978        4.0648306934        0.3438525540
 C          2.4304470487        2.8219519849        0.6310379741
 C          3.2247886786        1.6979910556        0.5480545337
 C          4.5664994705        1.7875843207        0.1642184843
 N          5.3397610649        0.6351249730        0.0749503698
 C          4.7202332390       -0.6177133102        0.2815334775
 C          3.7777491353       -1.0829943602       -0.6335926284
 C          3.1241432493       -2.2771062134       -0.4135932436
 C          3.4116568137       -3.0360119114        0.7217071356
 C          2.7004655008       -4.3013547612        1.0161868698
 O          3.2122840790       -5.2202431835        1.6214245608
 C          1.2881416580       -4.3628764709        0.5526097196
 C          0.7263174859       -5.5672977731        0.1319858763
 C         -0.5864198181       -5.5808809749       -0.3011869456
 C         -1.3013294128       -4.3827555059       -0.3010533578
 C         -2.6817859526       -4.3288206674       -0.8732555451
 O         -3.1063170373       -5.2302190225       -1.5671727258
 C         -3.4344360804       -3.0849248173       -0.6090987445
 C         -4.2088549796       -2.5489680505       -1.6380211567
 C         -4.8455095803       -1.3358079920       -1.4771384964
 C         -4.7400962923       -0.6513980013       -0.2688535728
 N         -5.3431044659        0.6175601347       -0.1051667535
 C         -6.7279007921        0.7195540086       -0.0683451825
 C         -7.5123552681       -0.4336797780       -0.1656210677
 C         -8.8890375001       -0.3608773604       -0.1485318801
 C         -9.5126311058        0.8669711023       -0.0205873716
 C         -8.7394417091        2.0043798603        0.1149652795
 C         -7.3516459044        1.9596102635        0.1023420437
 C         -6.5659197205        3.2407512399        0.3044926089
 C         -6.9321902085        3.8246713230        1.6812933037
 C         -6.9360299744        4.2335267627       -0.8126186266
 C         -5.0696222447        3.0002288647        0.2567395029
 C         -4.2032405677        4.0744644447        0.4112010519
 C         -2.8310957359        3.9295688446        0.3328452799
 C         -2.3000101914        2.6803979805        0.0680008574
 C         -3.1370181483        1.5953197285       -0.0835902001
 C         -4.5239693366        1.7315855646        0.0357984240
 C         -4.0217522941       -1.2165255652        0.7824081012
 C         -3.3671316746       -2.4184811604        0.6135837928
 N         -0.7802615641       -3.2426857259        0.1466983119
 C          0.4619613461       -3.2347469308        0.5703538285
 C          4.3953858752       -2.5937735665        1.6062618800
 C          5.0357527357       -1.3900019767        1.3975471038
 C          6.6930964863        0.6856228206       -0.2396307463
 C          7.4191862331       -0.5009136222       -0.3775695743
 C          8.7651425149       -0.4805656765       -0.6761830148
 C          9.4125903510        0.7281675164       -0.8558525510
 C          8.6887368575        1.9012188828       -0.7578466122
 C          7.3322891665        1.9094408590       -0.4604638339
 H          7.1413090074        3.6420976946        1.6386623014
 H          6.7319554380        5.0880597293        0.7158308153
 H          8.2804278692        4.2915582967        0.4590271932
 H          6.1960988296        4.8611711828       -1.8070780231
 H          6.2555307723        3.2656634720       -2.5567389980
 H          7.7464185797        4.0677863468       -2.0632864174
 H          4.7112717316        5.1393869111       -0.1946374018
 H          2.3520917267        4.9519435423        0.3978844795
 H          1.3967855773        2.7235304345        0.9275217266
 H          2.7999162998        0.7369509477        0.7932898442
 H          3.5578096796       -0.4918064863       -1.5100922207
 H          2.4048690483       -2.6325533239       -1.1365954852
 H          1.3306059769       -6.4627971420        0.1358599409
 H         -1.0662419716       -6.4821349156       -0.6493439041
 H         -4.2715019963       -3.0832485387       -2.5742348049
 H         -5.4177699064       -0.9030537460       -2.2843080214
 H         -7.0371830614       -1.3988582330       -0.2469929377
 H         -9.4717040565       -1.2660978862       -0.2310504481
 H        -10.5894498283        0.9385082500       -0.0118164545
 H         -9.2379558705        2.9539589761        0.2377548178
 H         -6.6683597725        3.1172456281        2.4653507862
 H         -7.9977362948        4.0260507530        1.7466275434
 H         -6.3986636217        4.7533867858        1.8635811220
 H         -6.4029166790        5.1722593470       -0.6911311312
 H         -6.6743591358        3.8133628217       -1.7820051741
 H         -8.0015342172        4.4451573265       -0.8068190805
 H         -4.6071495056        5.0583319436        0.5959610242
 H         -2.1865510365        4.7855148797        0.4624855109
 H         -1.2327596063        2.5466953246       -0.0285509797
 H         -2.7094186075        0.6300035923       -0.3054429749
 H         -3.9707559665       -0.6925199827        1.7253639375
 H         -2.8189688211       -2.8493180877        1.4356871260
 H          0.8188971783       -2.2860491187        0.9504131513
 H          4.6233185272       -3.1984945568        2.4711456420
 H          5.7773216434       -1.0329846297        2.0964931790
 H          6.9218150185       -1.4510030448       -0.2590725573
 H          9.3036725257       -1.4113214139       -0.7725426145
 H         10.4668421633        0.7584514176       -1.0843993817
 H          9.2004601621        2.8371286614       -0.9230019181
