  49
        -81.51784970
 C         -6.9614192429        2.4146934619        0.8069667561
 C         -6.7846212754        1.2485284621        1.5327738883
 C         -5.7001792068        0.4283911330        1.2820302045
 C         -4.7873403978        0.7690862695        0.2884603249
 N         -3.6863039915       -0.0606850842        0.0287423352
 C         -3.7336696649       -1.4231249096       -0.1940071586
 C         -4.8307019584       -2.2696359562       -0.2659263078
 C         -4.5980333181       -3.6052727731       -0.5319930071
 C         -3.3087728600       -4.0942543222       -0.7319793998
 C         -2.2154586162       -3.2531457932       -0.6840234024
 C         -2.4239196660       -1.9062557415       -0.4177382393
 C         -1.5488339988       -0.7721189877       -0.3151740096
 C         -0.1749015542       -0.6192927246       -0.4138227957
 C          0.3793330378        0.6432487544       -0.2467409583
 C          1.8316550637        0.8352878498       -0.3506448806
 C          2.3580332799        1.9521879822       -1.0134004363
 N          3.6463349616        2.2157867490       -1.1534204617
 C          4.4702874725        1.3424572934       -0.6180332517
 O          5.8180557417        1.4716024881       -0.6654633741
 C          6.3229955199        0.3996083845       -0.0137630969
 N          7.6134256984        0.1994146829        0.1373912794
 C          7.9488976376       -0.8959067601        0.8032738714
 C          7.0381438436       -1.8072376881        1.3291065189
 C          5.6787919966       -1.5931357935        1.1668704600
 C          5.3005108173       -0.4539618357        0.4731545190
 C          4.0741147045        0.1704249264        0.0714131356
 C          2.7196924242       -0.0844988445        0.2046197590
 C         -0.4509485249        1.7366825350        0.0375350366
 C         -1.8189012155        1.6044962361        0.1506691688
 C         -2.3719819321        0.3462105469       -0.0449830142
 C         -4.9695005824        1.9378526480       -0.4446431692
 C         -6.0510213131        2.7570794151       -0.1788944652
 H         -7.8064921537        3.0551394565        1.0091085615
 H         -7.4896265808        0.9802019369        2.3054108690
 H         -5.5460560626       -0.4697436854        1.8613875061
 H         -5.8349472115       -1.8974756738       -0.1305602134
 H         -5.4351810648       -4.2850359908       -0.5906166027
 H         -3.1690797902       -5.1453412187       -0.9359978654
 H         -1.2178899132       -3.6287669231       -0.8551112513
 H          0.4518283927       -1.4692700262       -0.6385020501
 H          1.6968560278        2.6716705719       -1.4757576313
 H          9.0127415382       -1.0473071494        0.9198983937
 H          7.3960639041       -2.6749967264        1.8602550557
 H          4.9451398541       -2.2798251014        1.5626665215
 H          2.3616304861       -0.9523806473        0.7386687833
 H          0.0001665445        2.7041322074        0.1994218919
 H         -2.4360419942        2.4549378729        0.3975786702
 H         -4.2698742411        2.1897098999       -1.2275176048
 H         -6.1871760507        3.6635341544       -0.7497547723
