49
 energy: -81.517873561527 gnorm: 0.000026092185 xtb: 6.7.1 (edcfbbe)
C           -6.97544860055539        2.40498669945291        0.78705098945425
C           -6.79295936699462        1.24470382850924        1.52098596017948
C           -5.70313569927279        0.42953362406899        1.27744966217625
C           -4.79036623508739        0.76966258580869        0.28360041641716
N           -3.68527390944070       -0.05691142138706        0.03004442923417
C           -3.72891880750250       -1.41974539093645       -0.19071383627614
C           -4.82411220184119       -2.26834606143859       -0.26561703248226
C           -4.58772750148341       -3.60407334098373       -0.52797838593858
C           -3.29659512656768       -4.09107450064467       -0.72068584438217
C           -2.20507968217541       -3.24775626041869       -0.67004271229405
C           -2.41731923949747       -1.90062582341182       -0.40797140960130
C           -1.54517436177946       -0.76435370229069       -0.30408705839247
C           -0.17141926379292       -0.60865016295398       -0.39880870626873
C            0.38018887632062        0.65504007642029       -0.23053086608374
C            1.83247552080324        0.84814439796861       -0.33135548895389
C            2.36029289941432        1.97225501440674       -0.98092022257432
N            3.64888406588922        2.23579186500080       -1.11849170975003
C            4.47213642345614        1.35396150631639       -0.59606848257600
O            5.82009827847569        1.48045505235706       -0.64495662226726
C            6.32395812160081        0.39756824757518       -0.01065393398629
N            7.61427435641368        0.19096400081301        0.13269770649534
C            7.94860173998293       -0.91605526402316        0.77956283173059
C            7.03685897764052       -1.83318100463356        1.29347846827028
C            5.67760102644680       -1.61191869441105        1.14015673592252
C            5.30050881926205       -0.46017291391875        0.46686884967923
C            4.07469606124233        0.17365679837454        0.07830185714349
C            2.72004761241188       -0.07963450820914        0.21157027566424
C           -0.45351364911491        1.74688592817325        0.05051062668812
C           -1.82175073138538        1.61227769804908        0.15755037751280
C           -2.37164274994852        0.35262662569522       -0.03853385746555
C           -4.97730709988130        1.93309188785666       -0.45665973118946
C           -6.06466352749478        2.74715070971307       -0.19863081377451
H           -7.82535544782507        3.04099274651427        0.98284619026938
H           -7.49839770234646        0.97649953268937        2.29340354459466
H           -5.54504565387842       -0.46451878028489        1.86200390371127
H           -5.82955534888554       -1.89756471412751       -0.13528652770752
H           -5.42331164867720       -4.28555229613427       -0.58898146395631
H           -3.15400286472670       -5.14235913977044       -0.92161095317552
H           -1.20601706576833       -3.62182197339333       -0.83584447928912
H            0.45717117058515       -1.45769261640558       -0.62166993320493
H            1.70027156159026        2.69874135932762       -1.43387947062871
H            9.01236341913463       -1.07256688210720        0.89011214461032
H            7.39400100559902       -2.71092285591240        1.80851019697203
H            4.94316408423138       -2.30283792995713        1.52707318613600
H            2.36179838336149       -0.95348548934465        0.73565200936665
H           -0.00528936215236        2.71537008964560        0.21418793133444
H           -2.44188388030976        2.46179900427220        0.40025851627321
H           -4.27681493619040        2.18464162174426       -1.23896852078333
H           -6.20550525199096        3.64885341621408       -0.77589694440989
