49
 energy: -81.517782182660 gnorm: 0.000054028557 xtb: 6.7.1 (edcfbbe)
C           -5.67472392568517        3.41997295076739        0.16696398350624
C           -5.98140989563042        2.28006218120826        0.89139881399313
C           -5.15361449405603        1.17411809401836        0.83544937985558
C           -4.01237971978804        1.20076763873817        0.03945986719548
N           -3.17341660173933        0.07842585285488       -0.02659953611366
C           -3.57618614216408       -1.21703034242348       -0.28916988570179
C           -4.84007117784924       -1.70678894311702       -0.58541230275536
C           -4.96378346638120       -3.05941765758053       -0.83872813037529
C           -3.86085295950707       -3.91023021767143       -0.80775530462382
C           -2.59741745890135       -3.42498369856434       -0.53667597712792
C           -2.44786408949185       -2.06847800480528       -0.27997650843862
C           -1.31273044025511       -1.23711064187587        0.00824437103279
C            0.04021419883494       -1.49592616770749        0.15833095303781
C            0.90108724124809       -0.44527914643985        0.44950780889132
C            2.34272204457489       -0.68578688564076        0.59220671757604
C            2.81363122918128       -1.82334910314203        1.26190211834219
N            4.08808817766073       -2.13205680711857        1.43244240197140
C            4.95506008541939       -1.28487455220558        0.92347474839983
O            6.29605816726197       -1.45979473819150        1.00516986091722
C            6.85377696798502       -0.40194961217729        0.37387287087142
N            8.15374062177103       -0.24414702804519        0.25822659548262
C            8.54317785379407        0.84352212151805       -0.39058143808505
C            7.67774547689680        1.78853910415029       -0.93327187803281
C            6.30816449622343        1.61893165756905       -0.80882509740490
C            5.87373873872308        0.48840595179234       -0.13416546453301
C            4.61696233911274       -0.09663333484795        0.23104743857854
C            3.27592058425353        0.20496079605870        0.06426404982345
C            0.38931277903779        0.84993993238665        0.61105859170702
C           -0.95489116611676        1.12735178237868        0.47583369890197
C           -1.80732769448913        0.08070913306018        0.15194423053324
C           -3.70767521493490        2.34513448315493       -0.69156786566393
C           -4.53593623314243        3.44987534766694       -0.62068139547355
H           -6.32155066835550        4.28276006087004        0.21603054094286
H           -6.86606694523465        2.25411818909574        1.51016584542373
H           -5.37712668305493        0.29138502434237        1.41571922215398
H           -5.69809353962960       -1.05309661530728       -0.62914639731120
H           -5.93741176869606       -3.46564462942973       -1.06978379317435
H           -4.00026712279109       -4.96186660851984       -1.00873306075698
H           -1.73988374403521       -4.08057723982244       -0.52830206407100
H            0.42148817456547       -2.49719554596649        0.02854421107317
H            2.11649505716576       -2.52176504229454        1.70325038287688
H            9.61420245929386        0.95972428620782       -0.47836230781171
H            8.07854373884728        2.64739862645129       -1.44802650628178
H            5.60860498824764        2.33258416710384       -1.21850572488429
H            2.96249211091748        1.08730037515935       -0.47419784297498
H            1.06603609593249        1.64893083580833        0.87619978619407
H           -1.33004732873184        2.12774947960357        0.63030764848695
H           -2.83124814032076        2.35603052023304       -1.32228172943401
H           -4.29528700596303        4.33528797070368       -1.19026892674062
