  49
        -81.41517823
 C         -6.2233335117        3.4792366460       -0.2336671838
 C         -6.3275190480        2.6034494285        0.8358013309
 C         -5.4874608983        1.5105911835        0.9280417305
 C         -4.5322494247        1.2839705537       -0.0612923368
 N         -3.6748000049        0.1807963522        0.0266382502
 C         -4.0649918776       -1.1305322998        0.2565772087
 C         -5.3353959430       -1.6562369216        0.4119547285
 C         -5.4475780737       -3.0266084015        0.6096157160
 C         -4.3249939955       -3.8460740481        0.6406356768
 C         -3.0537570248       -3.3284233810        0.4592845028
 C         -2.9179051951       -1.9601686170        0.2587453807
 C         -1.7922823010       -1.1036735019        0.0167509126
 C         -0.4314680981       -1.3269324932       -0.0886105289
 C          0.4250889121       -0.2420909140       -0.2939152502
 C          1.8629280671       -0.4514105652       -0.3788003596
 C          2.3522689992       -1.5912575605       -1.0610184588
 N          3.6570344470       -1.8593221132       -1.1855098926
 C          4.5066849967       -1.0135583676       -0.6866594300
 O          5.8421808842       -1.2071415581       -0.6738029966
 C          6.3757911344       -0.1157555603       -0.0593354117
 N          7.6505216658        0.0465107746        0.1250698621
 C          8.0457567606        1.1668526370        0.7534513443
 C          7.1484606094        2.1225336104        1.2140580587
 C          5.7894305717        1.9617021918        1.0266554748
 C          5.3601384100        0.7937173903        0.3619392045
 C          4.1462155095        0.2188889447       -0.0454362695
 C          2.7709561393        0.4690158392        0.1267040003
 C         -0.1087071590        1.0571991053       -0.4040224106
 C         -1.4633225677        1.2994224327       -0.3122536001
 C         -2.3113373613        0.2145677539       -0.1195597218
 C         -4.4308979683        2.1632701394       -1.1384699465
 C         -5.2730486620        3.2552667024       -1.2177488738
 H         -6.8801529156        4.3328222489       -0.3001668348
 H         -7.0628023021        2.7775880989        1.6070221879
 H         -5.5467086838        0.8421756604        1.7735603779
 H         -6.2139346897       -1.0309267700        0.3680438446
 H         -6.4271328655       -3.4612045389        0.7377229439
 H         -4.4504417551       -4.9065240995        0.8001962421
 H         -2.1859626731       -3.9693931009        0.4691598543
 H         -0.0299793444       -2.3222613333        0.0206209661
 H          1.6907063119       -2.2512377125       -1.5962418770
 H          9.1109113642        1.2745573337        0.8777516627
 H          7.5308499250        2.9967810234        1.7186160607
 H          5.0747879269        2.6959453976        1.3645016461
 H          2.4444317531        1.3241215854        0.6967307371
 H          0.5651119230        1.8828563114       -0.5712393181
 H         -1.8489410471        2.3056086781       -0.3751722962
 H         -3.7070222474        1.9699771613       -1.9159859076
 H         -5.1926047406        3.9314900438       -2.0556839435
