49
 energy: -81.419063593273 gnorm: 0.000048890975 xtb: 6.7.1 (edcfbbe)
C           -6.97301402857572        2.42077218845805        0.76273026573107
C           -6.80372588389413        1.26080486001864        1.50079905304934
C           -5.71667175220728        0.43881570546820        1.26869655983901
C           -4.79217414702295        0.77445842092783        0.28379322370763
N           -3.68880515612334       -0.05772872198251        0.04211865723397
C           -3.74182199274995       -1.42194670271938       -0.18312030521850
C           -4.84306779827814       -2.26019780248321       -0.26620388307086
C           -4.61431954829873       -3.59923760434235       -0.52906976203868
C           -3.32643445320328       -4.09333808141778       -0.71452521112900
C           -2.22695914047391       -3.25674961105919       -0.65648650123604
C           -2.43205554716775       -1.91034695624906       -0.39336870506215
C           -1.55216395987280       -0.77711753246179       -0.28434147218836
C           -0.18156498342374       -0.62724985806032       -0.38133282041763
C            0.37957006526955        0.63709604380163       -0.19956621945274
C            1.82395682314662        0.82676198322925       -0.28268903324520
C            2.31978057432932        1.98299498023241       -0.93914737194868
N            3.63410744920108        2.23938632399386       -1.04776333800233
C            4.47620566385627        1.36780344999006       -0.59792950676011
O            5.81218437648522        1.55794423400612       -0.56151085498420
C            6.33373704776177        0.44075100275035        0.01657083505485
N            7.60030348543527        0.27516472867058        0.22618425773770
C            7.99067865247018       -0.86459841448715        0.83236527358600
C            7.08123155372621       -1.81972979100146        1.27050992999073
C            5.72775403565972       -1.65918735508985        1.05747967740488
C            5.30461367858780       -0.47905183967666        0.39678361008330
C            4.10514167489951        0.10878437231035       -0.00204974070246
C            2.71768520315962       -0.12191721395768        0.17420643565366
C           -0.45550193640211        1.73421084007535        0.07627105916904
C           -1.82227428135182        1.60518490142285        0.18045273179588
C           -2.37693801816660        0.34474871872711       -0.01857449275883
C           -4.96469275457654        1.93811681103656       -0.46021801829615
C           -6.05110487728617        2.75711121400225       -0.21491637996678
H           -7.82148075571527        3.06121220564207        0.94910529258220
H           -7.51753511942269        0.99798231041079        2.26705103596013
H           -5.56768994530585       -0.45406856429224        1.85724262791958
H           -5.84657711562261       -1.88235924282538       -0.14281396009857
H           -5.45445838916851       -4.27405195513655       -0.59574732375749
H           -3.18861534898572       -5.14495446413644       -0.91573230558691
H           -1.23014136924071       -3.63799858391960       -0.81649696397028
H            0.44763087428171       -1.47547346406199       -0.60237155781780
H            1.66716438403816        2.65107989021869       -1.47380312195092
H            9.05472469748006       -0.98483947997699        0.94884121448929
H            7.45579012414270       -2.70453010430986        1.76207228317995
H            5.00766602813985       -2.40472522885209        1.35463713370287
H            2.38635874571926       -1.00245947601132        0.70096873353326
H           -0.00107932212282        2.69952317696780        0.23928166210220
H           -2.44162780501715        2.45532435331715        0.42289345965709
H           -4.25595395795518        2.18372662965883       -1.23688674070344
H           -6.18204933950830        3.65806832168296       -0.79525990892393
