49
 energy: -81.419097715557 gnorm: 0.000047369672 xtb: 6.7.1 (edcfbbe)
C           -6.25727072955214        3.46080100446554       -0.23335747131987
C           -6.33343424327480        2.60039257714504        0.84963859316366
C           -5.47930129337269        1.51723800695560        0.94133863218268
C           -4.54367278846200        1.28569584612069       -0.06292546549406
N           -3.67781987035478        0.18527786013537        0.02334412222123
C           -4.06015159681775       -1.12436506343532        0.25523259019676
C           -5.33031975474296       -1.65827902727649        0.41037910195015
C           -5.43458958036728       -3.02360429664265        0.60875010346868
C           -4.30837315987262       -3.84083078193668        0.64293843811794
C           -3.04150104901561       -3.31637783299987        0.46395043206407
C           -2.91274682074965       -1.94984444151420        0.26385303237850
C           -1.78731729752827       -1.08591423598031        0.02446004965603
C           -0.42657490735652       -1.30604166015412       -0.07343791828967
C            0.42551739270879       -0.22193009016130       -0.28853075843502
C            1.86677091742849       -0.43041885672305       -0.37723815480000
C            2.34406548752787       -1.57319431324552       -1.07098668506025
N            3.65407596222979       -1.84722004205490       -1.18799751878588
C            4.51024259247012       -1.00473948039693       -0.71037301148811
O            5.84306083723686       -1.21686214416208       -0.68171930952488
C            6.38267914457297       -0.12694181363392       -0.06905594681104
N            7.65208901921531        0.01238101031877        0.14283006753806
C            8.06096265808895        1.12655031004360        0.78338095714865
C            7.16728615191174        2.08162292112916        1.25264203634741
C            5.81098969824115        1.94852946493723        1.03783423452199
C            5.36864041253577        0.79609752573047        0.34211404270340
C            4.15958047709418        0.23995730655420       -0.07320337327472
C            2.77632223478115        0.48665038298042        0.11185234900798
C           -0.11431101042588        1.07062137927067       -0.40990945126292
C           -1.46750689139168        1.30989523995144       -0.32192323584378
C           -2.31214170362785        0.22311367588519       -0.11924506296133
C           -4.46978587398706        2.14856427677599       -1.15267757699321
C           -5.32337731642475        3.23323939278544       -1.23080477043553
H           -6.92424996158015        4.30668867101730       -0.29985090988127
H           -7.05666530676332        2.77738012718968        1.63153360748547
H           -5.51898622769556        0.85722929234308        1.79492911022135
H           -6.21048487577315       -1.03508772248994        0.36577556687539
H           -6.41199335687966       -3.46434603211677        0.73561030714965
H           -4.43075789680974       -4.90142356038771        0.80254426870727
H           -2.17003815283873       -3.95270661756339        0.47510682219272
H           -0.02175331969469       -2.29931303873327        0.04379938865973
H            1.68159380634446       -2.21253658352488       -1.62801411283254
H            9.12693078109218        1.22650072516823        0.90162192148017
H            7.55622714294612        2.94497604975019        1.77047647798545
H            5.10303382035294        2.69564012648019        1.35925561771996
H            2.46016697855617        1.35381337892005        0.66937160472899
H            0.55658825668113        1.89755735996700       -0.58542558383190
H           -1.85789932718258        2.31337323051536       -0.39868151324037
H           -3.75625525199872        1.95341821204658       -1.93923629216600
H           -5.26396354647138        3.89908786777049       -2.07864172737151
