  94
       -139.22398620
 C          8.1171340110       -1.5914361287       -0.2751918727
 C          8.8791376501       -0.5695064475        0.5874405802
 C          8.1160830300       -0.3032105206        1.8972973423
 C         10.2207091886       -1.1901556501        0.9565341193
 C         10.2731211191       -2.3826957664        1.6654543777
 C         11.4744755554       -2.9736304385        2.0160744591
 C         12.6688701531       -2.3725135020        1.6579074561
 C         12.6471210161       -1.1874665538        0.9536252181
 C         11.4332469950       -0.5968007486        0.6032179901
 N         11.4348508105        0.5823979533       -0.0976889764
 C         10.2976813819        1.2460639431       -0.4899650415
 C         10.4637781725        2.4371610912       -1.1959478744
 C          9.3678482093        3.1544052887       -1.6201725170
 C          8.1058406408        2.6750936776       -1.3351983172
 C          7.9258457148        1.4849464153       -0.6297073874
 C          6.4931946008        1.1513137611       -0.4309450982
 C          5.7905508261        1.6781532195        0.6485217105
 C          4.4348696394        1.4528378341        0.7902193001
 C          3.7383409328        0.7086363737       -0.1598458683
 C          2.2987161487        0.4472879719       -0.0474169305
 C          1.6482342282        0.4215382899        1.2130923124
 C          0.3071491782        0.1768132421        1.2769553919
 C         -0.4060044750       -0.0462831356        0.0778179860
 N         -1.7260841711       -0.2802931440        0.1141591062
 C         -2.3720367565       -0.4912378108       -1.0117397062
 C         -3.8137505188       -0.7410973521       -0.8983203962
 C         -4.3221486725       -1.2543398300        0.2950500915
 C         -5.6711499486       -1.5048779483        0.4384531273
 C         -6.5591955897       -1.2245679985       -0.5968877139
 C         -7.9913777672       -1.5981271849       -0.4852266476
 C         -8.2350205044       -2.9109425906       -0.8900362497
 C         -9.5070908523       -3.4444697053       -0.8620659336
 C        -10.5491531302       -2.6577425934       -0.4254893218
 C        -10.3191354694       -1.3441853383       -0.0174592214
 C         -9.0326949898       -0.7810056592       -0.0361881423
 C         -8.8175251623        0.6610684715        0.4233293877
 C         -7.8588629383        0.6726887740        1.6274444177
 C         -8.2270740022        1.4842366867       -0.7355344021
 C        -10.1083491175        1.3425518297        0.8599168900
 C        -10.0940626659        2.6576701209        1.3046671986
 C        -11.2480430672        3.3065390389        1.7080452574
 C        -12.4611674622        2.6406368201        1.6742697450
 C        -12.5050746759        1.3332862496        1.2386312296
 C        -11.3386285114        0.6847014496        0.8338413420
 N        -11.4051355409       -0.6168487099        0.4054033556
 C         -6.0501192310       -0.7340165842       -1.7953919297
 C         -4.6989631838       -0.4868913282       -1.9439267162
 C         -1.7146480457       -0.5016242603       -2.2688697187
 C         -0.3715331233       -0.2682521289       -2.3315016861
 C          0.3367776477       -0.0192845304       -1.1346528643
 N          1.6555912115        0.2211819322       -1.1718190389
 C          4.4334243940        0.2260931279       -1.2688171581
 C          5.7880755581        0.4487420034       -1.4048388127
 C          9.0229585114        0.7396481443       -0.1886336379
 H          7.0861942289       -1.2872809021       -0.4168574333
 H          8.5955878051       -1.6838850322       -1.2486124946
 H          8.1206012213       -2.5689308337        0.1983417706
 H          8.6000902111        0.4993764864        2.4511680643
 H          8.1095069834       -1.1911050519        2.5228705628
 H          7.0883232048       -0.0227582247        1.6962299986
 H          9.3577204815       -2.8747746551        1.9581677621
 H         11.4760168856       -3.9011485894        2.5681726248
 H         13.6116772766       -2.8243215553        1.9270455083
 H         13.5691856733       -0.7021871366        0.6649956726
 H         12.3243104235        0.9904127305       -0.3406694700
 H         11.4654506757        2.7866065462       -1.4038663383
 H          9.4946862922        4.0765133278       -2.1666415468
 H          7.2317424616        3.2209536201       -1.6585040289
 H          6.3154649462        2.2774687863        1.3789577163
 H          3.9149009506        1.8891924085        1.6300435300
 H          2.2216477620        0.5713225326        2.1149176432
 H         -0.2277580879        0.1423497642        2.2142655111
 H         -3.6341409236       -1.4600121155        1.0999022523
 H         -6.0482760921       -1.9270333107        1.3590276068
 H         -7.4024473069       -3.5099816270       -1.2286684402
 H         -9.6830783491       -4.4619447486       -1.1763093533
 H        -11.5572255011       -3.0468049529       -0.3923687116
 H         -6.8637909873        0.3585355934        1.3335089725
 H         -8.2280404044        0.0013757453        2.4008441453
 H         -7.7883560698        1.6708561031        2.0497730827
 H         -7.2121010783        1.1722661648       -0.9538575740
 H         -8.8368805235        1.3575670186       -1.6284292866
 H         -8.2098262044        2.5407107938       -0.4842700990
 H         -9.1624116041        3.2020332214        1.3428745636
 H        -11.1981580137        4.3298361823        2.0479403247
 H        -13.3674291323        3.1372104381        1.9867019300
 H        -13.4425713532        0.7956220485        1.2058607050
 H        -12.3059047350       -1.0696367694        0.3970315604
 H         -6.7245765039       -0.5459584444       -2.6186833415
 H         -4.3406246414       -0.0753469664       -2.8756705939
 H         -2.2748509209       -0.7185658315       -3.1652052313
 H          0.1705789698       -0.2725380817       -3.2652525239
 H          3.8856042988       -0.3219568620       -2.0191084849
 H          6.3121935562        0.0817843723       -2.2757176210
