80
 energy: -116.561105526782 gnorm: 0.000117725107 xtb: 6.7.1 (edcfbbe)
C           -7.56257961311486        1.53455792219844        0.60727060902303
C           -6.12948864855158        1.38421935583832        1.15161853670564
C           -5.96920258998553        2.18426280086995        2.45820630694698
C           -5.86840654294929       -0.07697302939651        1.44962465760988
C           -6.65608723393292       -0.73549401595049        2.38419970321485
C           -6.43319164928339       -2.05483455662508        2.73155232491076
C           -5.37303376658903       -2.73814514726185        2.15624009014952
C           -4.57715190185705       -2.11120911142047        1.22444360942486
C           -4.82982250753718       -0.78913629425987        0.83091279056200
N           -4.02907846105273       -0.19692578810500       -0.12572009546263
C           -3.02425169585845       -0.97174516985496       -0.76416812603012
C           -3.41650613341619       -2.01794385042691       -1.59809157986552
C           -2.44548648896407       -2.79649049096359       -2.25851629490712
C           -1.12282949046530       -2.50281916527758       -2.02747390956194
N            0.00379850946998       -3.10316241549772       -2.53184917292799
C            1.12880766425012       -2.49075507388377       -2.03929822803099
C            2.45223079518595       -2.76974837409691       -2.28424047161735
C            3.42125423760302       -1.98311665123764       -1.63121856215198
C            3.02637603567433       -0.94377160179099       -0.78911889977467
N            4.02989033355845       -0.16563859897037       -0.15338662660717
C            4.84683969210996       -0.76156665035028        0.78742669575220
C            4.60856681231567       -2.08933278569946        1.17111134818395
C            5.42163363688621       -2.72023448358722        2.08517205503073
C            6.48516691287399       -2.03552205880062        2.65273705729363
C            6.69336113773384       -0.71077905823620        2.31688750598747
C            5.88792317031506       -0.04807736365947        1.40057233785520
C            6.13303478983611        1.41852120409874        1.11628442261025
C            7.55619641980940        1.58678411778141        0.55143976873599
C            5.98705052862991        2.20132194123463        2.43494576007525
C            5.14883259714912        1.96945411907481        0.10622505722204
C            5.22952741253827        3.30411598187776       -0.26689921555464
C            4.38911021678025        3.85201551093206       -1.21815561332277
C            3.45561423950624        3.04183483949834       -1.84562968243710
C            3.35458774327386        1.71384021052862       -1.49770935908575
C            4.17048189304023        1.16446996029777       -0.49781004736130
C            1.68886362614481       -0.64360441665965       -0.54362068405772
C            0.70599425647693       -1.43769822744289       -1.16738319520040
C           -0.70250193703541       -1.44502884802814       -1.16057985457236
C           -1.68746606429845       -0.65843858844812       -0.53053280995519
C           -4.18697273051805        1.12701133158769       -0.48572229510058
C           -3.38881223725947        1.67056287642774       -1.50284788117858
C           -3.50786292881224        2.99249593794255       -1.86794948040306
C           -4.44174378810507        3.80178947044983       -1.24014847881294
C           -5.26409685917589        3.25907151940374       -0.27035978273412
C           -5.16522804628827        1.93053163161069        0.11999971483607
H           -8.28969491302076        1.16190514262211        1.32329655092677
H           -7.66819741102733        0.96883189758854       -0.31650705062457
H           -7.79142954889874        2.57604603646666        0.39959309346909
H           -6.66058615218076        1.83009508307644        3.21755988122995
H           -4.95529167843652        2.07238442484480        2.83763075809419
H           -6.15887552070717        3.24085032075810        2.29142643868324
H           -7.46791135744055       -0.20727841815722        2.86096333914737
H           -7.06879392806032       -2.53873794743499        3.45732832427685
H           -5.16298569957470       -3.75851212777092        2.43937445440046
H           -3.74286353046221       -2.63923042256346        0.79167888624482
H           -4.46559701515442       -2.21015313027233       -1.75609976103185
H           -2.74384616891005       -3.58279916398884       -2.93473302912555
H            0.00521600761463       -3.89228231793047       -3.15670407229495
H            2.75207183681244       -3.55159640245198       -2.96497048189972
H            4.47071886840273       -2.16395921931102       -1.79974986701115
H            3.77181980414034       -2.61883659871435        0.74504235315419
H            5.22229447596581       -3.74479760868926        2.36076096363498
H            7.13438586480526       -2.52254303747014        3.36421713188426
H            7.50785165401595       -0.18168701868044        2.78807786494624
H            7.77363517576202        2.63253395133160        0.35307245331228
H            7.65165083125939        1.03324136877167       -0.38079388870846
H            8.29724075622344        1.21108109074490        1.25142365436304
H            4.97993648520356        2.07728007512590        2.82844410675550
H            6.16658821042388        3.26123281058882        2.27850890101112
H            6.69257452763272        1.84306617015361        3.17920254701924
H            5.97100665975182        3.93992343948698        0.19276691332012
H            4.47488465835238        4.89551924320682       -1.48016303932241
H            2.81130847415737        3.44382736490727       -2.61285344369982
H            2.64049214244222        1.08318093149401       -2.00207354966319
H            1.41951047167134        0.15157841420141        0.13287482698913
H           -1.42010811055587        0.14252733000042        0.13987947736858
H           -2.67431158420760        1.04019224449574       -2.00698331726713
H           -2.87726583377064        3.39016705839857       -2.64870522600993
H           -4.54163030707938        4.84055188683641       -1.51569253227305
H           -6.00568175407974        3.89400490134545        0.19035867908461
