80
 energy: -116.660823331154 gnorm: 0.000059019601 xtb: 6.7.1 (edcfbbe)
C           -5.87632184961474       -0.00017512712263        3.06589221156136
C           -6.12341546730636       -0.00007002376235        1.54622367474462
C           -7.63469063801327       -0.00004203174436        1.25238233995740
C           -5.51324743836631        1.25711574484829        0.95542443916365
C           -5.95966006255326        2.50013237879828        1.38169806226824
C           -5.44051104832028        3.67911423140140        0.87919992654713
C           -4.44376215333584        3.62517773637128       -0.07812154703998
C           -3.98107389007191        2.40370723389186       -0.51959322154465
C           -4.50517992179258        1.21041294277779       -0.01358487568450
N           -4.01949279658302        0.00005770015481       -0.47679775990296
C           -3.01129835319592        0.00012013047292       -1.48252773174005
C           -3.39562581089737        0.00019614781756       -2.82753132578613
C           -2.45832994344775        0.00025514680145       -3.84054411071317
C           -1.11837738411580        0.00023693867859       -3.48175304572844
N           -0.00002200309908        0.00027741090887       -4.27506761296021
C            1.11834074041810        0.00023090046675       -3.48176342304877
C            2.45828996037333        0.00024332150875       -3.84056695092130
C            3.39559520575365        0.00017773030141       -2.82756286295133
C            3.01128028417965        0.00010215115363       -1.48255567899635
N            4.01948441126398        0.00002237863298       -0.47683540378201
C            4.50514173159297       -1.21040108239859       -0.01376950665033
C            3.98099566779465       -2.40362184463745       -0.51990956291167
C            4.44365655160784       -3.62515671283777       -0.07858702343366
C            5.44041746019239       -3.67923274444540        0.87871396158813
C            5.95960598241889       -2.50032393471863        1.38134256029261
C            5.51322227387671       -1.25724520015228        0.95521995846587
C            6.12343387794073       -0.00014579667920        1.54615823091945
C            7.63470415375832       -0.00017554166048        1.25229097238476
C            5.87636631773114       -0.00021743568817        3.06583100355338
C            5.51330051188153        1.25705151879162        0.95534768689187
C            5.95976520628940        2.50005961152129        1.38159172001599
C            5.44065037844069        3.67905125397404        0.87908126135895
C            4.44388203264863        3.62513374892312       -0.07822109843272
C            3.98114304832265        2.40367201781058       -0.51966422069593
C            4.50521747829126        1.21036798207735       -0.01364631704085
C            1.67530516778239        0.00009518288431       -1.11857738131690
C            0.71810406387982        0.00015869824047       -2.12371251355817
C           -0.71812807066744        0.00016099888859       -2.12370585784170
C           -1.67531984644663        0.00010326853427       -1.11856187248882
C           -4.50518500552702       -1.21035611275868       -0.01374410618794
C           -3.98108362969012       -2.40358658665109       -0.51990728273754
C           -4.44378501994617       -3.62511269265086       -0.07860259669948
C           -5.44054216795308       -3.67916975248156        0.87870343178612
C           -5.95968337557123       -2.50025117533237        1.38135792747101
C           -5.51325723660680       -1.25718097032062        0.95525483709592
H           -4.80644138942572       -0.00019642550136        3.26604881787957
H           -6.31186261036091       -0.88076835988710        3.53008092956471
H           -6.31184991567041        0.88036137192729        3.53020043205970
H           -8.11238967583099        0.88026766147107        1.67354233039414
H           -7.80204344798179        0.00002958509199        0.17681033200696
H           -8.11239858023607       -0.88040237219456        1.67342620505337
H           -6.73666135420554        2.55747445224322        2.12919558208505
H           -5.81133111678848        4.62900595161053        1.23329602033980
H           -4.02346474440508        4.53378760424314       -0.48337555794990
H           -3.20243236069307        2.36709136264233       -1.26620664611510
H           -4.44935162292161        0.00018832910799       -3.06260599608310
H           -2.75945123865106        0.00030438586327       -4.87722819039417
H           -0.00002665443098        0.00032891303338       -5.28044569213490
H            2.75940164074299        0.00029870610384       -4.87725382058912
H            4.44931884332245        0.00017961107108       -3.06264728864937
H            3.20234435423090       -2.36689807876879       -1.26650749201800
H            4.02332662512343       -4.53370751923656       -0.48393979495283
H            5.81121437464056       -4.62917600256903        1.23269569872600
H            6.73661576255088       -2.55777478574601        2.12882286423152
H            8.11244558474959        0.88010920751415        1.67345510026727
H            7.80203841629769       -0.00009556521723        0.17671601527712
H            8.11238399451212       -0.88056106415682        1.67331414335703
H            6.31190875132561       -0.88080427798087        3.53003024456988
H            4.80648926948885       -0.00022660088560        3.26600605678416
H            6.31190883870417        0.88032522748322        3.53011402612164
H            6.73678100455744        2.55738691865767        2.12907523148401
H            5.81150908508025        4.62893578408223        1.23315587056568
H            4.02360723156890        4.53375169665907       -0.48348054857629
H            3.20248600211916        2.36707044821409       -1.26626237412128
H            1.39444980765130        0.00003718943379       -0.07669263082791
H           -1.39445484660861        0.00004968471272       -0.07667972022087
H           -3.20243485246714       -2.36687708927400       -1.26650875553097
H           -4.02348765523122       -4.53367156940202       -0.48397113731014
H           -5.81136930761491       -4.62910581715568        1.23267245231952
H           -6.73668860646852       -2.55768730378254        2.12884397711742
