  80
       -116.66079589
 C         -5.9847791297        0.7054059662        3.2217485322
 C         -6.1785624373        0.4474142732        1.7164283720
 C         -7.6757200209        0.4789443247        1.3584329241
 C         -5.4712144370        1.5424164321        0.9402052594
 C         -5.8471615583        2.8652778390        1.1268711685
 C         -5.2435623397        3.9040575407        0.4423927280
 C         -4.2342471144        3.6225906720       -0.4603125090
 C         -3.8409965305        2.3171804530       -0.6658191630
 C         -4.4466835514        1.2656769417        0.0285383789
 N         -4.0278936849       -0.0341977723       -0.1971900335
 C         -3.0160601931       -0.2752626916       -1.1695952251
 C         -3.3980674115       -0.5794577742       -2.4804641185
 C         -2.4592828753       -0.8227575372       -3.4622283617
 C         -1.1201413934       -0.7521003452       -3.1076604561
 N         -0.0009280135       -0.9433711543       -3.8761752901
 C          1.1162785927       -0.7666141810       -3.1013912248
 C          2.4563905767       -0.8552113729       -3.4481651214
 C          3.3925733677       -0.6211934675       -2.4617169790
 C          3.0072019235       -0.3059694309       -1.1544974664
 N          4.0179789318       -0.0672578566       -0.1801253218
 C          4.5316892795       -1.1376804316        0.5309137399
 C          4.0006856328       -2.4158157635        0.3333384450
 C          4.4906362992       -3.5022057947        1.0266342000
 C          5.5222622242       -3.3333365287        1.9322575672
 C          6.0475930756       -2.0697447149        2.1306004941
 C          5.5730095838       -0.9585535321        1.4478736289
 C          6.1945528204        0.4009610922        1.7072470672
 C          7.6872642225        0.3371028996        1.3348689623
 C          6.0318921508        0.7432281614        3.1993176324
 C          5.5368079626        1.4909922284        0.8819801974
 C          5.9757703803        2.8017642564        1.0051937644
 C          5.4183656549        3.8349834036        0.2745051140
 C          4.3909307870        3.5602358836       -0.6095636687
 C          3.9358995384        2.2666190959       -0.7529050868
 C          4.4976060686        1.2205212055       -0.0148543876
 C          1.6709785148       -0.2195664047       -0.8017367381
 C          0.7145981150       -0.4506653750       -1.7809850356
 C         -0.7217515664       -0.4425445787       -1.7847648136
 C         -1.6807451719       -0.2052910880       -0.8096435904
 C         -4.5946696895       -1.1117154518        0.4610404098
 C         -4.1229417801       -2.4027308096        0.2049389459
 C         -4.6687201504       -3.4967055846        0.8422783254
 C         -5.6971263746       -3.3227254778        1.7506292812
 C         -6.1605662776       -2.0461721564        2.0105571003
 C         -5.6290852373       -0.9272542512        1.3846961073
 H         -4.9242385388        0.6875201849        3.4661195298
 H         -6.4858513509       -0.0551511599        3.8142353478
 H         -6.3853667722        1.6750418414        3.5042489944
 H         -8.1105467224        1.4469234357        1.5918603839
 H         -7.8052536045        0.2923295890        0.2938547152
 H         -8.2226374243       -0.2817959489        1.9086868371
 H         -6.6362300772        3.0993659622        1.8256492721
 H         -5.5602725912        4.9218328313        0.6127682530
 H         -3.7503488177        4.4185285836       -1.0069106388
 H         -3.0547800936        2.1031976002       -1.3737054420
 H         -4.4513815731       -0.6233272802       -2.7133040568
 H         -2.7583364365       -1.0579518425       -4.4724785248
 H          0.0003658711       -1.1734460650       -4.8548584104
 H          2.7581560876       -1.0973214372       -4.4559611316
 H          4.4465357688       -0.6781836815       -2.6886334787
 H          3.1947525601       -2.5525914506       -0.3715111142
 H          4.0646179058       -4.4801781896        0.8576795338
 H          5.9155106879       -4.1760523060        2.4803117115
 H          6.8530525571       -1.9527201727        2.8400478093
 H          8.1740108383        1.2912497334        1.5175723107
 H          7.7946041932        0.0937064508        0.2792928433
 H          8.2000396645       -0.4245647234        1.9159345326
 H          6.5053624603       -0.0085692467        3.8246815324
 H          4.9748221267        0.7865807993        3.4550643380
 H          6.4797972542        1.7062109063        3.4284121523
 H          6.7787708044        3.0306545011        1.6896956927
 H          5.7842999137        4.8432500900        0.3957273555
 H          3.9408393135        4.3520336398       -1.1900034186
 H          3.1344146563        2.0577065038       -1.4450199360
 H          1.3893043216        0.0239392759        0.2110916153
 H         -1.4018548943        0.0322555174        0.2053667780
 H         -3.3182423230       -2.5438800164       -0.5004634560
 H         -4.2883444812       -4.4845693462        0.6280401151
 H         -6.1341609394       -4.1713307653        2.2546473485
 H         -6.9614781445       -1.9248086660        2.7243856143
