80
 energy: -116.660818106183 gnorm: 0.000050913496 xtb: 6.7.1 (edcfbbe)
C           -5.96518999581250        0.71319230065881        3.22849040780544
C           -6.16913781625049        0.44788649251734        1.72570902950642
C           -7.66907846712567        0.47254088000500        1.37920493649499
C           -5.47176466851410        1.54202963007699        0.93936290261167
C           -5.85567912932836        2.86369917950557        1.11814505183203
C           -5.26147504133157        3.90163141345492        0.42421525421849
C           -4.25333144690973        3.62050039004064       -0.47990977923417
C           -3.85161517706073        2.31637427461285       -0.67697613633350
C           -4.44806499671082        1.26571171989057        0.02662606580277
N           -4.02031921444511       -0.03273188780839       -0.19054973289911
C           -3.01133160643217       -0.27321822046222       -1.16611638800367
C           -3.39741321100941       -0.57876953492182       -2.47549923742637
C           -2.46174166690748       -0.81910093075368       -3.46090876221668
C           -1.12142871745100       -0.74485005255897       -3.11148381564429
N           -0.00466867743599       -0.93252630981971       -3.88436974541677
C            1.11501155140504       -0.75453019598989       -3.11343201835783
C            2.45402695465503       -0.84091241305965       -3.46503917023633
C            3.39346391639500       -0.60930638837745       -2.48109518251800
C            3.01219838448332       -0.29836169965079       -1.17161228707328
N            4.02473393746355       -0.06606388402969       -0.19754930034877
C            4.53286822663495       -1.14047583401782        0.51154076043246
C            4.00782723836293       -2.41854188965314        0.29814059882967
C            4.49286199315308       -3.50894586127368        0.98859097790848
C            5.51295526549401       -3.34404366873972        1.90789792240763
C            6.03186724097277       -2.08042735012201        2.12248172194198
C            5.56313928633436       -0.96555152586901        1.44174182498309
C            6.17471540803297        0.39429508789056        1.72213392308918
C            7.67772798479452        0.33594620474876        1.39339556555699
C            5.96762655236099        0.73068116624424        3.21017694276495
C            5.53648363321677        1.48588155740771        0.88372007235007
C            5.97903507371728        2.79492766961382        1.01272958864452
C            5.43671267256758        3.82997566294678        0.27342741808915
C            4.42025957937642        3.55919900304818       -0.62455369837505
C            3.96100365551346        2.26767599958345       -0.77288175608000
C            4.50805658525254        1.21956041201789       -0.02663487154746
C            1.67709536289922       -0.21232323398417       -0.81456797524192
C            0.71746261777470       -0.44121825967128       -1.79113423305053
C           -0.71893993914576       -0.43534223159539       -1.78981001160686
C           -1.67487638522212       -0.20012381325227       -0.81111436405608
C           -4.58258277006667       -1.11001361675658        0.47194334508365
C           -4.10662281022627       -2.40016695292168        0.21951906458871
C           -4.64833337883602       -3.49410664737247        0.86044075136157
C           -5.67636796386009       -3.32072194669030        1.76928701915453
C           -6.14338454697288       -2.04484307017771        2.02626219690823
C           -5.61661871157541       -0.92609494913759        1.39618544267814
H           -4.90300730230369        0.69640542304244        3.46551484707532
H           -6.46204053831222       -0.04489793661610        3.82767750248089
H           -6.36381028295444        1.68422998837002        3.50917315641338
H           -8.10573779557753        1.43990614160426        1.61177658051111
H           -7.80604956075424        0.28081766220441        0.31647564461803
H           -8.20918494051862       -0.28754819693115        1.93697322122713
H           -6.64328822746928        3.09759036637878        1.81867762754253
H           -5.58486700563808        4.91838327317465        0.58794357224340
H           -3.77712481281733        4.41558325410959       -1.03443508104305
H           -3.06559642458712        2.10271474158276       -1.38514096905566
H           -4.45148471725634       -0.62528841914755       -2.70439849970188
H           -2.76410043623227       -1.05505889068675       -4.47000317495901
H           -0.00659810683584       -1.16181349059060       -4.86324477168925
H            2.75258281608900       -1.08020200889579       -4.47448066727806
H            4.44670071597568       -0.66542511559715       -2.71164858163721
H            3.21065163069653       -2.55223214832627       -0.41721892259171
H            4.07179556925753       -4.48676545884907        0.80687986096746
H            5.90197556166425       -4.18971347143845        2.45442522812163
H            6.82709096855566       -1.96647687158844        2.84388507264820
H            8.15684509016619        1.29009136069457        1.59491533538695
H            7.81671405943089        0.09771671996601        0.34037751229911
H            8.17568448362293       -0.42668728454307        1.98583557863981
H            6.42412252323251       -0.02297000910008        3.84595422614243
H            4.90341761644935        0.77079824728780        3.43502177392372
H            6.40631522925075        1.69404372306077        3.45529657585820
H            6.77205611878200        3.02098369402628        1.70972029591173
H            5.80542879225293        4.83672378480929        0.39867446321225
H            3.98207553647991        4.35263923799007       -1.21182690825796
H            3.16737694974756        2.06187207713892       -1.47490808698735
H            1.39872112451766        0.02871997948206        0.19974867317326
H           -1.39264738031861        0.03771010633122        0.20289984775885
H           -3.30219276035944       -2.54050760263836       -0.48637609743568
H           -4.26489114429786       -4.48132074792888        0.64869821993721
H           -6.11034959177799       -4.16912908731221        2.27628564762923
H           -6.94366533171723       -1.92409985331004        2.74093070836468
