  61
        -96.89033616
 C         -6.3372251006        0.2217500275        1.1871946106
 C         -5.3311537662       -0.0187649242        0.0450416449
 C         -6.0755179421       -0.4030074628       -1.2485122149
 C         -4.4201984119       -1.1571173000        0.4464103712
 C         -4.9655551231       -2.4003355147        0.7402369039
 C         -4.1857759976       -3.4573645016        1.1699435633
 C         -2.8228736048       -3.2713282122        1.3508805618
 C         -2.2548001656       -2.0523143128        1.0645287360
 C         -3.0326376127       -0.9922103599        0.5732749167
 N         -2.4247849571        0.2113333413        0.2654158399
 C         -1.0232089093        0.3269599548        0.3720546281
 C         -0.4879196128        1.1822241686        1.3589979505
 C          0.8611006818        1.2992845484        1.5247337097
 C          1.7467723186        0.5755641005        0.6853940512
 C          1.2354995247       -0.2624468662       -0.3238398930
 C          2.1134188647       -0.9470578070       -1.1840932599
 C          1.6027000654       -1.7606495121       -2.2159348423
 C          0.2470918466       -1.8636494106       -2.4005933172
 C         -0.6425644253       -1.1945151925       -1.5572396437
 C         -0.1714638391       -0.4025808422       -0.5029597577
 C          3.5515093589       -0.8271800513       -1.0177928568
 O          4.3566536980       -1.4449709526       -1.7035491229
 N          3.9871274229        0.0119516019        0.0012163480
 C          5.3990932825        0.1542711579        0.1626987113
 C          5.9950852793       -0.2016916698        1.3630840616
 C          7.3625978969       -0.0608787497        1.5138736658
 C          8.1332736070        0.4224514940        0.4698217100
 C          7.5334025596        0.7720669065       -0.7280823843
 C          6.1650386616        0.6455480655       -0.8840439847
 C          3.1739603288        0.7339422834        0.8706041740
 O          3.6633728322        1.4742210153        1.7167815897
 C         -3.1604002324        1.3126509410       -0.1249881638
 C         -2.4950484126        2.4952636057       -0.4862721794
 C         -3.1993330310        3.6205426966       -0.8468441439
 C         -4.5852284326        3.5856407042       -0.8814660239
 C         -5.2440182386        2.4068497638       -0.5839716227
 C         -4.5610824690        1.2573310633       -0.2111343118
 H         -6.9383191200       -0.6645578959        1.3668997501
 H         -7.0063421146        1.0423529820        0.9466496790
 H         -5.8058390965        0.4684438709        2.1040544731
 H         -6.6445997501       -1.3172615323       -1.1079222411
 H         -6.7627681326        0.3836372035       -1.5469601329
 H         -5.3627733978       -0.5615372649       -2.0560029444
 H         -6.0287355172       -2.5518194991        0.6354031340
 H         -4.6400060530       -4.4127368990        1.3818038856
 H         -2.2059900475       -4.0754123637        1.7207740481
 H         -1.1994109038       -1.9047969914        1.2247855457
 H         -1.1742943325        1.7028350549        2.0113839274
 H          1.2918863960        1.9216938217        2.2921781319
 H          2.3068309038       -2.2815381839       -2.8446707309
 H         -0.1475842123       -2.4772957334       -3.1966892233
 H         -1.7050181148       -1.3000161649       -1.7198653773
 H          5.3879547477       -0.5795926340        2.1712786443
 H          7.8281536474       -0.3356183224        2.4489448990
 H          9.2017469571        0.5269836429        0.5900619469
 H          8.1317109607        1.1496010666       -1.5444534434
 H          5.6892747394        0.9191977179       -1.8129532109
 H         -1.4174079426        2.5161667409       -0.4926162851
 H         -2.6685881560        4.5213485196       -1.1128580921
 H         -5.1475575031        4.4627609050       -1.1613615258
 H         -6.3208372399        2.3871590943       -0.6502704775
