  103
       -170.93926621
 N         -2.1590407821       -3.3260943270       -2.3116011086
 C         -1.8257446815       -2.4784954138       -1.5987083532
 C         -1.4295375558       -1.4732315937       -0.7280858208
 C         -2.3381907240       -0.4319870932       -0.3523621014
 N         -3.6681871198       -0.5054652053       -0.7855003930
 C         -4.5692185119       -1.4951225294       -0.4508941311
 C         -4.3584283773       -2.6922655628        0.2189399722
 C         -5.4549009259       -3.4952192001        0.4661204305
 C         -6.7348779264       -3.1155781014        0.0716207368
 C         -6.9542763829       -1.9138611715       -0.5778969252
 C         -5.8683366162       -1.0955545682       -0.8427746240
 C         -5.7304585651        0.1966986762       -1.4598516633
 C         -6.6250780984        1.0878076323       -2.0297237420
 C         -6.1352559331        2.2665679269       -2.5651961081
 C         -4.7712411599        2.5404574155       -2.5718924531
 C         -3.8603801248        1.6635835392       -2.0130813804
 C         -4.3538688500        0.5117535596       -1.4183155458
 C         -1.9082257478        0.6525052994        0.3875459839
 N         -2.8174865464        1.6406417565        0.7851089504
 C         -2.7573667311        2.9742859876        0.4377574718
 C         -1.7539857423        3.6716837407       -0.2204309173
 C         -1.9663927444        5.0101923999       -0.4873142052
 C         -3.1521448899        5.6424089163       -0.1234751414
 C         -4.1646283984        4.9475482107        0.5136724621
 C         -3.9708641548        3.6055547361        0.7978054745
 C         -4.7922710598        2.5948507243        1.4089663579
 C         -6.0656588968        2.5940756487        1.9545160576
 C         -6.5548343000        1.4161942981        2.4925178802
 C         -5.7769063367        0.2631962172        2.5249763052
 C         -4.5022689043        0.2422386194        1.9904671178
 C         -4.0329858266        1.4034956006        1.3944802153
 C         -0.5412646727        0.7681127547        0.7956112823
 C         -0.1382832200        1.7769795896        1.6582534957
 N          0.2089500017        2.6252297011        2.3642191082
 C          0.3635429552       -0.2756367683        0.4250231775
 N          1.6941251999       -0.2162200634        0.8643977582
 C          2.3568344316       -1.2562380843        1.4871728737
 C          1.8353632271       -2.3845070412        2.1016260394
 C          2.7276254144       -3.2908752795        2.6433381412
 C          4.1013590753       -3.0708908707        2.5959629336
 C          4.6237919794       -1.9189173218        2.0362387881
 C          3.7455452683       -0.9977591702        1.4862552603
 C          3.9113326434        0.2772640958        0.8520246229
 C          5.0036469307        1.0559384573        0.5078069574
 S          6.6820930720        0.6894744070        0.7951290268
 C          7.1635056693        2.1848421870        0.0194205913
 C          8.4633305139        2.6301098946       -0.1438436204
 C          8.6698824669        3.8387401680       -0.7827888363
 C          7.5942552154        4.5881199567       -1.2503037919
 C          6.2990233476        4.1433283088       -1.0858136120
 C          6.0635880381        2.9288587773       -0.4442328226
 C          4.8138077283        2.2769430344       -0.1662522938
 C          3.5213723560        2.7031481816       -0.4937151280
 C          2.4230721437        1.9397151567       -0.1743717473
 C          2.6192645333        0.7333639185        0.4981719976
 C         -0.0628883672       -1.3551645449       -0.3252692082
 N          0.8607221552       -2.3255403256       -0.7370609049
 C          2.0797057489       -2.0443404022       -1.3226118753
 C          2.5090483531       -0.8718693087       -1.9265127938
 C          3.8011415322       -0.8366157056       -2.4181732320
 C          4.6348531885       -1.9467437210       -2.3351683405
 C          4.1848120305       -3.1405836609       -1.7971555547
 C          2.8942078985       -3.1979975403       -1.2969838226
 C          2.1016177857       -4.2369101592       -0.6948666567
 C          2.3485044994       -5.5643760019       -0.3855363119
 C          1.3509710912       -6.2966161769        0.2329775625
 C          0.1260357896       -5.7163018311        0.5510371088
 C         -0.1398831913       -4.3925939696        0.2593716298
 C          0.8510421239       -3.6570610958       -0.3753917243
 H         -3.3725135236       -2.9939407612        0.5357585005
 H         -5.3156022674       -4.4358979383        0.9771505201
 H         -7.5674503520       -3.7700991404        0.2813423663
 H         -7.9490921347       -1.6150403470       -0.8706881114
 H         -7.6802264541        0.8631052299       -2.0567216363
 H         -6.8179517452        2.9784884743       -3.0037443954
 H         -4.4136867298        3.4532355682       -3.0238894646
 H         -2.8009216510        1.8658389633       -2.0524134005
 H         -0.8342257183        3.1910542210       -0.5144541700
 H         -1.1970791888        5.5767420860       -0.9899638226
 H         -3.2816879599        6.6903500165       -0.3484914993
 H         -5.0888276702        5.4358218095        0.7821532846
 H         -6.6597893329        3.4949218713        1.9612338166
 H         -7.5487581505        1.3934871652        2.9130657886
 H         -6.1721994422       -0.6332117840        2.9781737279
 H         -3.8910900987       -0.6453793842        2.0495178435
 H          0.7700384567       -2.5459138935        2.1660057977
 H          2.3485352975       -4.1863517930        3.1118217156
 H          4.7668400156       -3.8063222391        3.0216245254
 H          5.6868188110       -1.7335345473        2.0262789312
 H          9.2912893038        2.0436884132        0.2229453518
 H          9.6764113430        4.2038085232       -0.9195781712
 H          7.7780424878        5.5288953029       -1.7470809663
 H          5.4677391524        4.7286984757       -1.4480774473
 H          3.3922126732        3.6413386781       -1.0101836671
 H          1.4317457896        2.2705407922       -0.4380934399
 H          1.8537272180       -0.0193548365       -2.0227347554
 H          4.1665549771        0.0714618617       -2.8739215666
 H          5.6424061461       -1.8789239729       -2.7164797549
 H          4.8237621229       -4.0096028432       -1.7676798542
 H          3.3014453507       -6.0129856140       -0.6206986064
 H          1.5225024467       -7.3341345620        0.4773123116
 H         -0.6316870796       -6.3122015211        1.0369483704
 H         -1.0910927614       -3.9525321608        0.5133769943
