51
 energy: -92.707659630720 gnorm: 0.000042039461 xtb: 6.7.1 (edcfbbe)
Cl          -0.25385847168595        3.77136931734579        2.08789466752027
C           -0.17150090984241        2.24576553538661        1.27865695131513
N           -1.33734593216485        1.73983929664452        0.92584619775379
C           -1.33796917292254        0.48369062516376        0.33817521254626
N           -2.59564870109078       -0.02829176306350        0.05563850948013
C           -3.05166484382413       -1.29760747046865        0.34611424943098
C           -2.43602563799128       -2.31713118521617        1.06248159934540
C           -3.12816493908799       -3.50351647737825        1.22682938170998
C           -4.40749678737574       -3.67256474645603        0.70082386629064
C           -5.04526545813767       -2.64511674910140        0.02112340742735
C           -4.37333388066673       -1.44638097326527       -0.15043567144173
C           -4.72989977666781       -0.18192046294693       -0.74048262985946
C           -5.86751832887817        0.29625484052063       -1.36873856509278
C           -5.87059066735619        1.60663173100497       -1.82711880390434
C           -4.76080359903788        2.43289037225009       -1.66296238687806
C           -3.61155125560534        1.97629109423939       -1.04124561781567
C           -3.60612611595531        0.66754983447757       -0.57647470035939
C           -0.16228945919977       -0.16308651608295        0.00870584993012
Cl          -0.18377847965601       -1.60520011509382       -0.96069507624960
C            1.08166445391561        0.39250051373206        0.34315075490744
N            2.29069724502649       -0.19167904185548       -0.02095131064822
C            2.73846279318782       -1.43020617936629        0.37983295285298
C            2.14010094919464       -2.34341532511860        1.23881187527591
C            2.80954577660634       -3.52711448697846        1.48889061764818
C            4.04494796854312       -3.79527313446432        0.90131026470619
C            4.65686165899761       -2.87790491751765        0.06003935045436
C            4.00791365325408       -1.68205262602793       -0.20125469848681
C            4.33404343449628       -0.51682278603429       -0.98128570182235
C            5.41803114888394       -0.15667164811985       -1.76556934204713
C            5.39099034729441        1.07063786424577       -2.41086724059749
C            4.29944675615943        1.92901961262680       -2.28883888926528
C            3.20831875210751        1.59449856833580       -1.50752445574642
C            3.23939280983084        0.37441208703236       -0.84463757954513
C            1.05000645733047        1.65596013750929        1.06257298529474
Cl           2.51399570565470        2.29622947835954        1.70306343936855
H           -1.45580240514939       -2.18270730090811        1.49151618832590
H           -2.66942008484487       -4.31048427200716        1.77734957975448
H           -4.91501263202573       -4.61487354664010        0.84103042204532
H           -6.04675165234931       -2.77286668044266       -0.35917923762474
H           -6.73238014280924       -0.33566174725507       -1.49846767509459
H           -6.74881335624864        1.99499748460127       -2.32046510752246
H           -4.79571791348071        3.44693568102663       -2.03087116219588
H           -2.74950226420561        2.60884248664486       -0.90353728124430
H            1.18961342215214       -2.12704986350015        1.70166475143009
H            2.36925869017103       -4.25483080704902        2.15344926732001
H            4.53669289883851       -4.73244791573148        1.11446300304060
H            5.62016783503020       -3.08799361774570       -0.37851764461743
H            6.26359599884561       -0.81840857921896       -1.87308774121368
H            6.22699112903306        1.36713088595980       -3.02624568431708
H            4.30412136090866        2.87112327284592       -2.81569772058574
H            2.35925886760413        2.25476163521355       -1.41494930588353
