51
 energy: -92.804135561625 gnorm: 0.000036134128 xtb: 6.7.1 (edcfbbe)
Cl          -0.26399953215373        3.88346451716871        1.84847574516641
C           -0.16662137077723        2.32256434528691        1.14643814533974
N           -1.30843092194816        1.74373767592845        0.86009690941938
C           -1.33536641967557        0.53624239954292        0.30207201028673
N           -2.57747989114612        0.00138090814751        0.04948472424939
C           -2.98718959586954       -1.30860188289741        0.28269501048670
C           -2.33316034017315       -2.33589738939727        0.94323370177803
C           -2.99298308651685       -3.54528822705983        1.07565516674261
C           -4.28122287718554       -3.72601510203311        0.58223901694869
C           -4.95747139755250       -2.68838684900882       -0.03113745283025
C           -4.31305939535308       -1.46723033610680       -0.17353002733097
C           -4.73273279634367       -0.18729139501116       -0.68405590580454
C           -5.91228854318593        0.26483397731575       -1.26055629716761
C           -5.99536866739965        1.59108856667083       -1.63982104500994
C           -4.92112474923654        2.45713844143574       -1.45575099434546
C           -3.73511493550498        2.02594555841971       -0.88716094974084
C           -3.65303904162311        0.70009486986958       -0.49886388628822
C           -0.14020891863575       -0.10898257206211       -0.06034431517066
Cl          -0.14749682949596       -1.52212405393480       -1.05664235872142
C            1.08565418869935        0.47503496219483        0.27875626977993
N            2.28384309342231       -0.14393505830048       -0.04263463058193
C            2.67794915988639       -1.40621605295736        0.37715054277677
C            2.03535675253158       -2.28698506212580        1.23106848652572
C            2.66850762910526       -3.48299193506431        1.51727678383743
C            3.91659880554051       -3.78767772847093        0.98050239779185
C            4.57365468113396       -2.89699659451525        0.15315800895446
C            3.95460535897453       -1.69176239347945       -0.15145166988098
C            4.34095152472607       -0.54945403544552       -0.93771908249409
C            5.45632101915216       -0.25612742015912       -1.71126533215838
C            5.49898742852895        0.95331301515248       -2.37801875386160
C            4.44091751742509        1.85491127513456       -2.29779027456119
C            3.31789228046782        1.58282175224562       -1.53706759062200
C            3.28803272105531        0.38534305694534       -0.84124785871772
C            1.06944910271512        1.72075530788167        0.92944901781225
Cl           2.53359388362214        2.46222046216269        1.44932362871248
H           -1.34722057049191       -2.20200564238156        1.35937825508247
H           -2.49775455804243       -4.36114582779909        1.58062746982354
H           -4.76294222488917       -4.68492710399312        0.70068315855670
H           -5.96971422079625       -2.81632975563730       -0.38218725423542
H           -6.74248881920945       -0.40866931009900       -1.40739870773142
H           -6.90496408104476        1.96475654621205       -2.08575969843138
H           -5.01389876095568        3.48868668967479       -1.76097961370938
H           -2.90712673386363        2.70024684707408       -0.73878885824537
H            1.07737137545128       -2.04642026496768        1.66671599467807
H            2.18633522799725       -4.19085570362801        2.17483920713322
H            4.37935581589717       -4.73185708597250        1.22579653942682
H            5.54970719752408       -3.12655856438396       -0.24581341552219
H            6.26762131593341       -0.96324109027180       -1.79121812239331
H            6.35935323614584        1.20261257302576       -2.98090392426358
H            4.49405958075367        2.78504323268622       -2.84374974877418
H            2.49439810542363        2.27977109316564       -1.49398965607104
