51
 energy: -92.804171938547 gnorm: 0.000042724794 xtb: 6.7.1 (edcfbbe)
Cl          -0.42463132934988       -3.23597816614867        3.52063880634101
C           -0.22227448972146       -2.06063802420911        2.28920334247692
N           -1.32232326191061       -1.56561472795801        1.77389510018792
C           -1.26680270458899       -0.65271350121267        0.80783382413806
N           -2.46984860152626       -0.17603616139673        0.34011036422143
C           -3.58649577895821       -0.96181324302781        0.05605870803419
C           -3.74888614837190       -2.33187172737814        0.16629455149345
C           -4.95813420314414       -2.87044724636237       -0.23790090885616
C           -5.97654283407162       -2.06863936687328       -0.74573659337368
C           -5.81314753345953       -0.70157205087360       -0.86445071792887
C           -4.60847439629297       -0.14038127384855       -0.46195704248601
C           -4.10935656683132        1.21063751353168       -0.43913523530637
C           -4.67445663267631        2.43589432218558       -0.76509554628836
C           -3.93347993239992        3.58349005502077       -0.55470560214820
C           -2.65925739646455        3.51877759820460        0.00031499652761
C           -2.07782091953584        2.30718816977024        0.33133119328293
C           -2.79607824958708        1.15081744906339        0.07383375292628
C           -0.03061398236822       -0.26029504924129        0.26585638775699
Cl           0.05656819139408        0.68380144387799       -1.17999684500899
C            1.15269981345163       -0.74963088312543        0.83055427594512
N            2.39126230568082       -0.37634286961881        0.33225107451739
C            3.35469128109893       -1.23615977749018       -0.17671263782611
C            3.29370038705259       -2.60615968946402       -0.37267197689891
C            4.39396796611556       -3.22230156046605       -0.94156415149709
C            5.51924024624178       -2.49406569477777       -1.31871736516667
C            5.56931668038808       -1.12331721996864       -1.15251153520248
C            4.47733993494595       -0.48297332274529       -0.58142054416693
C            4.17708127463519        0.89526568005503       -0.29393231770545
C            4.88673874634088        2.07959448883041       -0.44329802379743
C            4.29645932233275        3.26060742355991       -0.03552848116087
C            3.02513131149314        3.26941946316050        0.53217574263030
C            2.30252513437244        2.10136165341890        0.69619191550618
C            2.87962456447594        0.92033398259942        0.26027242207406
C            1.05133408971644       -1.65738595423089        1.89909814309705
Cl           2.46085107342247       -2.23426703100562        2.70142615274334
H           -2.96419492448330       -2.95354912519164        0.56648690597970
H           -5.11349095024928       -3.93588840944392       -0.15636656344236
H           -6.90647663055785       -2.52525823252755       -1.04992731119168
H           -6.60038351078357       -0.08044869937521       -1.26312087253947
H           -5.67615834632418        2.48700481564870       -1.16287208842796
H           -4.35299323378479        4.54661700515440       -0.80379059581170
H           -2.11334392950260        4.43175877201866        0.18563890497474
H           -1.10218196638742        2.27499576213555        0.79006990594746
H            2.41895152641613       -3.17616760842231       -0.09762783623259
H            4.37600347215497       -4.29046496547511       -1.09881106999947
H            6.35890230030072       -3.01158403473175       -1.75802162460517
H            6.43407716118519       -0.55757928101818       -1.46361746902090
H            5.87991172054447        2.07226528883080       -0.86537545350489
H            4.83001109974740        4.19257410357839       -0.14737200546966
H            2.59518508133033        4.20553117340583        0.85590743232621
H            1.32627576851408        2.11161073355411        1.15679751192366
