  41
        -69.83269902
 C          5.3708573354       -2.7778604458        0.0998177214
 O          3.9866028035       -2.5324343948        0.0937915024
 C          3.5565933937       -1.2380059859        0.0484410834
 C          4.4156388649       -0.1175402188        0.0062335252
 C          3.9235880358        1.2057190391       -0.0249318053
 O          4.5955907443        2.2227053801       -0.0504632482
 O          2.5369928051        1.3837326700       -0.0293585235
 C          1.7004558139        0.3281386407       -0.0016616025
 C          2.1708253857       -1.0254176760        0.0455682941
 C          1.2189193634       -2.0934216125        0.1120502437
 C         -0.1335986374       -1.8592810046        0.1067906492
 C         -0.5809110627       -0.5407358274        0.0160027627
 C          0.3448227310        0.5562509985       -0.0090628281
 C         -0.4458328224        1.7594991330       -0.0247311054
 C         -0.1186842295        3.1017411950       -0.0711716288
 C         -1.1564249868        4.0313244981       -0.1148638135
 C         -2.4811268225        3.6270723904       -0.1318330569
 C         -2.8277894261        2.2799747707       -0.0845758790
 C         -1.8005284152        1.3519318097       -0.0058221856
 N         -1.8634449945       -0.0328104507        0.0197190630
 C         -3.0323062971       -0.7855194723        0.0091710322
 C         -4.0902773875       -0.4610693109        0.8654095168
 C         -5.2473003934       -1.2116475338        0.8471269058
 C         -5.3724890151       -2.2910174285       -0.0164879110
 C         -4.3235646829       -2.6180121000       -0.8650068066
 C         -3.1603266559       -1.8772234198       -0.8564091054
 H          5.8560630490       -2.3304089041        0.9724722239
 H          5.8490158251       -2.4071151749       -0.8118152944
 H          5.4757069523       -3.8606557853        0.1458910277
 H          5.4867666289       -0.2179666039        0.0016200084
 H          1.6075267712       -3.0943901179        0.1811830388
 H         -0.8308702872       -2.6785190522        0.1890733428
 H          0.9139694998        3.4097621280       -0.0794347104
 H         -0.9221400498        5.0844931443       -0.1493569221
 H         -3.2652078759        4.3669290117       -0.1874770659
 H         -3.8624838632        1.9775294567       -0.1275734216
 H         -3.9761034420        0.3535638220        1.5641401414
 H         -6.0559829423       -0.9607356207        1.5167784248
 H         -6.2807285611       -2.8727684949       -0.0286282235
 H         -4.4202764016       -3.4505427804       -1.5457619015
 H         -2.3579440804       -2.1050340236       -1.5417182181
