46
 energy: -75.469141734100 gnorm: 0.000068230167 xtb: 6.7.1 (edcfbbe)
N           -8.13540785354814       -0.00010924931992       -0.00005176455600
C           -6.98937370843335       -0.00008519934922        0.00001461664695
C           -5.57468143012036       -0.00004212330348        0.00000818479843
C           -4.87984738137350       -0.00002915548856       -1.21017647890558
C           -3.49944814558899        0.00000738268312       -1.20596117635001
C           -2.80552448561664        0.00002901629418        0.00002004125280
N           -1.38786355288842        0.00003505228455        0.00002649684443
C           -0.70289380535321        1.21423640445075        0.00000338920062
C           -1.38145809773556        2.42187976949902        0.00004458920915
C           -0.68833849057973        3.62680582014749        0.00002705260883
C            0.68835758543501        3.62680329049169       -0.00003315191395
C            1.38146985521444        2.42187391212305       -0.00007164433920
C            0.70289755952201        1.21423461484284       -0.00005206991700
N            1.38786334973677        0.00003228054958       -0.00009195996539
C            2.80552424220777        0.00003251161407       -0.00004313284634
C            3.49941713713342       -0.00002033211352        1.20595669802838
C            4.87981717762052       -0.00006449514751        1.21020745635916
C            5.57468111823532       -0.00005750144617        0.00003906814968
C            6.98937378403349       -0.00016906085746        0.00004410603572
N            8.13541083734819       -0.00013254866671        0.00013377109272
C            4.87988717403815        0.00000676144907       -1.21016638710858
C            3.49948937640730        0.00005192650729       -1.20599902933377
C            0.70289409936002       -1.21417144858959       -0.00005001483294
C            1.38145742659994       -2.42181665157073       -0.00007681674823
C            0.68833821387044       -3.62674293520401       -0.00003762264814
C           -0.68835729757944       -3.62674045872764        0.00002906161048
C           -1.38146930691002       -2.42181089703885        0.00004959566159
C           -0.70289814565477       -1.21416967742632        0.00000618673400
C           -3.49945894484460        0.00002527294764        1.20599463033040
C           -4.87985745491762       -0.00001138207212        1.21019758849179
H           -5.42710591200076       -0.00005302834867       -2.14106882291661
H           -2.94774316028928        0.00001272322899       -2.13397590337762
H           -2.46086650069121        2.42691867856260        0.00009305016539
H           -1.23896650348027        4.55450991250819        0.00005952302862
H            1.23899151661054        4.55450426221396       -0.00005110935378
H            2.46087837053019        2.42690756911098       -0.00011855416514
H            2.94768800590586       -0.00006750337956        2.13395721759308
H            5.42705188130196       -0.00011218709385        2.14111359043360
H            5.42717911121936        0.00001141451335       -2.14103889980591
H            2.94781760729230        0.00005986885203       -2.13403325695268
H            2.46086558020583       -2.42686056221345       -0.00013083197508
H            1.23896557973347       -4.55444759581782       -0.00006045989427
H           -1.23899049823571       -4.55444203887725        0.00006206343838
H           -2.46087755935510       -2.42684966341793        0.00010101201020
H           -2.94776342694005        0.00004428925876        2.13401488479798
H           -5.42712492745528       -0.00002203866465        2.14108421339253
