  46
        -75.39467388
 N         -8.1422130911        0.0150982163       -0.1695601591
 C         -6.9906915645        0.0115388064       -0.1287513426
 C         -5.5904915892        0.0063992490       -0.0799587373
 C         -4.8419713010       -0.3613020873       -1.2153298692
 C         -3.4703809769       -0.3662351430       -1.1656798532
 C         -2.8122959434       -0.0007732532        0.0136525919
 N         -1.3893358908       -0.0016225201        0.0579893391
 C         -0.7133840428        1.1924366631        0.0537474628
 C         -1.3856894878        2.4178251684        0.0061266338
 C         -0.6909391871        3.6037579620        0.0405908993
 C          0.7093534220        3.5991049835        0.1284827242
 C          1.3974073235        2.4101614924        0.1437327649
 C          0.7174517516        1.1877034261        0.0843766632
 N          1.3894705263       -0.0075056810        0.0525737810
 C          2.8122456714       -0.0070260106        0.0082300002
 C          3.5466680057       -0.3821592349        1.1386744001
 C          4.9187336873       -0.3758533716        1.0981691058
 C          5.5908124663        0.0041321067       -0.0796449218
 C          6.9911527017        0.0122507034       -0.1243204542
 N          8.1427591656        0.0206641254       -0.1610411269
 C          4.8422794616        0.3772108483       -1.2132957897
 C          3.4706182117        0.3732297025       -1.1664214816
 C          0.7134111356       -1.2014737904        0.0488601440
 C          1.3849755312       -2.4270537111       -0.0053264387
 C          0.6900232419       -3.6127595083        0.0305071633
 C         -0.7098129267       -3.6079617471        0.1261598192
 C         -1.3974904950       -2.4188374802        0.1465851339
 C         -0.7173680232       -1.1966915644        0.0862436057
 C         -3.5466302539        0.3658159384        1.1469310127
 C         -4.9186163143        0.3684694299        1.1035554083
 H         -5.3590920917       -0.6360221353       -2.1221448316
 H         -2.8877557161       -0.6449823445       -2.0315379354
 H         -2.4622666027        2.4232085080       -0.0560299846
 H         -1.2247304589        4.5395566313        0.0063364983
 H          1.2479834626        4.5315934897        0.1774467320
 H          2.4741461443        2.4076644776        0.2036317935
 H          3.0224783990       -0.6687697743        2.0386128535
 H          5.4941619313       -0.6593736002        1.9663299028
 H          5.3595124994        0.6653716737       -2.1158188918
 H          2.8881364045        0.6591199847       -2.0299389484
 H          2.4611419196       -2.4326290408       -0.0741569175
 H          1.2231908806       -4.5487043127       -0.0093310136
 H         -1.2482130117       -4.5404560847        0.1765759255
 H         -2.4740109885       -2.4154111623        0.2110730077
 H         -3.0223983584        0.6395309029        2.0508890053
 H         -5.4942426739        0.6449139380        1.9739814749
