  61
  -97.3946089500000       0.211431394210184      !
 C         -7.2347189972        0.3691330139        2.3588668657
 C         -6.5986742572       -0.8683760169        2.3313390796
 C         -5.4577431912       -1.0761357458        1.5728426959
 C         -4.9728824171       -0.0119448849        0.8270473443
 C         -5.5970983725        1.2589646122        0.8739413664
 C         -6.7382861510        1.4439884543        1.6422821241
 C         -4.8092703212        2.1319914240        0.0495472425
 C         -4.9229076309        3.4684423725       -0.3088223934
 C         -3.9809032925        4.0050601858       -1.1690062127
 C         -2.9521816051        3.2235994814       -1.6865635383
 C         -2.8205374819        1.8870152185       -1.3450767288
 C         -3.7398396142        1.3521550165       -0.4546555682
 N         -3.8518635791        0.0610288219        0.0236302751
 C         -2.9742988534       -0.9842197216       -0.2604367549
 C         -3.4889367933       -2.2417414618       -0.6218724023
 C         -2.6115299494       -3.2856122968       -0.9195295858
 C         -1.2587083340       -3.0624660488       -0.8456881568
 S         -0.0024578487       -4.2384907441       -1.1750100807
 C          1.2529953051       -3.0595535004       -0.8508433302
 C          2.6058798774       -3.2807632935       -0.9289918061
 C          3.4822620276       -2.2360065605       -0.6313748469
 C          2.9667289037       -0.9797490878       -0.2677964230
 N          3.8463854727        0.0628745056        0.0218809392
 C          4.9609349730       -0.0190350156        0.8330885457
 C          5.4284903758       -1.0864360105        1.5854557973
 C          6.5651167441       -0.8884125058        2.3525836065
 C          7.2138799778        0.3425937191        2.3818356583
 C          6.7347868626        1.4205416750        1.6580330038
 C          5.5976777319        1.2454267000        0.8813106653
 C          4.8239482285        2.1240530782        0.0492895239
 C          4.9541199505        3.4580228605       -0.3126728147
 C          4.0222700327        4.0023696124       -1.1790545657
 C          2.9866054483        3.2310430286       -1.6980548132
 C          2.8387397895        1.8969064347       -1.3536439443
 C          3.7492703700        1.3539446891       -0.4589909387
 C          1.5992812021       -0.7532459509       -0.1891649472
 C          0.7014297052       -1.7953086586       -0.4783749280
 C         -0.7079853489       -1.7969396470       -0.4756138011
 C         -1.6067421444       -0.7571144049       -0.1828077986
 H         -8.1232298745        0.4925067220        2.9597761241
 H         -6.9982520155       -1.6831495662        2.9159779420
 H         -4.9570092291       -2.0315701299        1.5762052522
 H         -7.2219342012        2.4079466784        1.6813690792
 H         -5.7326743964        4.0710374202        0.0729049952
 H         -4.0502665096        5.0434789043       -1.4563321820
 H         -2.2451639167        3.6642003216       -2.3730793562
 H         -2.0365429702        1.2813079694       -1.7722681852
 H         -4.5520702922       -2.3787762027       -0.7235376541
 H         -2.9948933303       -4.2479023953       -1.2210695585
 H          2.9899861348       -4.2418878299       -1.2329248405
 H          4.5455668365       -2.3714550569       -0.7336253284
 H          4.9178950015       -2.0367331158        1.5859904122
 H          6.9509278208       -1.7053212888        2.9430266602
 H          8.0985041342        0.4584504186        2.9898633682
 H          7.2278472184        2.3796548281        1.6991514535
 H          5.7692851443        4.0525418371        0.0704585669
 H          4.1051673953        5.0388545310       -1.4699895964
 H          2.2874097434        3.6778591892       -2.3885599843
 H          2.0485882630        1.2991119116       -1.7805759587
 H          1.2255389466        0.2016691088        0.1439738167
 H         -1.2335004301        0.1972607725        0.1523983350
  61
  -97.3946048800000       0.210522748380636      !
 C         -4.3223930748        2.8929703406        2.5969446758
 C         -3.3385794885        1.9220094190        2.7593622749
 C         -3.0869777750        0.9789972861        1.7755359566
 C         -3.8384840693        1.0412471538        0.6111588398
 C         -4.8621858777        2.0071295724        0.4513156824
 C         -5.0984254057        2.9401001372        1.4519133812
 C         -5.4733578762        1.7468748684       -0.8220610957
 C         -6.4956441949        2.3591798898       -1.5339207044
 C         -6.8226247832        1.8606541150       -2.7828006179
 C         -6.1344972953        0.7811255254       -3.3287091579
 C         -5.1099814402        0.1549289204       -2.6373314543
 C         -4.7974747375        0.6300912685       -1.3723083871
 N         -3.8122339610        0.2175044097       -0.4971253938
 C         -2.9390017064       -0.8520849389       -0.6925987546
 C         -3.4482627805       -2.0851839814       -1.1360675139
 C         -2.5800544311       -3.1615152034       -1.3245351390
 C         -1.2397238514       -2.9880870231       -1.0820212072
 S          0.0045405864       -4.2074294555       -1.2685579756
 C          1.2467640858       -3.0885082291       -0.7436427409
 C          2.5848617895       -3.3705492343       -0.6206121407
 C          3.4541998806       -2.3638558977       -0.1976738052
 C          2.9453143300       -1.0879203119        0.1013005199
 N          3.8160702713       -0.0862850514        0.5288510078
 C          5.0306107779        0.2335675013       -0.0454238699
 C          5.6369780189       -0.2897069370       -1.1778995099
 C          6.8566674948        0.2427460200       -1.5633883340
 C          7.4528149964        1.2783105809       -0.8497981689
 C          6.8383201868        1.8263954565        0.2625166280
 C          5.6163848597        1.3077973521        0.6685421937
 C          4.7051476617        1.6390888178        1.7280775161
 C          4.7321697202        2.5727595295        2.7551616165
 C          3.6739132610        2.6066273188        3.6464343086
 C          2.6123844583        1.7133867805        3.5365006035
 C          2.5651983490        0.7713475684        2.5212143979
 C          3.6053332171        0.7551988236        1.6036635341
 C          1.5922813943       -0.8009440770       -0.0205921995
 C          0.7023473542       -1.8004022523       -0.4503741506
 C         -0.6933950246       -1.7443173944       -0.6388389941
 C         -1.5844681773       -0.6745605378       -0.4452380863
 H         -4.4893102777        3.6117966626        3.3850947641
 H         -2.7631627052        1.8975973859        3.6724987713
 H         -2.3402659268        0.2137301197        1.9200429988
 H         -5.8761232361        3.6796973896        1.3385328993
 H         -7.0173764994        3.2092368586       -1.1217816242
 H         -7.6164156254        2.3221323090       -3.3507738301
 H         -6.3990896180        0.4266334874       -4.3134010404
 H         -4.5655031006       -0.6660675588       -3.0769304624
 H         -4.5088726059       -2.2102818809       -1.2736315876
 H         -2.9628537078       -4.1193738129       -1.6402206468
 H          2.9606011663       -4.3595203936       -0.8314642705
 H          4.4992553117       -2.5747622272       -0.0467452104
 H          5.1696726351       -1.0757737096       -1.7500960979
 H          7.3507119365       -0.1513702928       -2.4384778428
 H          8.4050485064        1.6661692018       -1.1792634168
 H          7.2932770859        2.6430931328        0.8017094513
 H          5.5648997718        3.2516515357        2.8567401513
 H          3.6754391996        3.3279476976        4.4498633404
 H          1.8116491356        1.7494714087        4.2595980756
 H          1.7518210648        0.0652826621        2.4582788066
 H          1.2313911992        0.1990172303        0.1593957300
 H         -1.2076295387        0.2940111171       -0.1579441643
  61
  -97.3945972900000       0.208838665140842      !
 C         -3.9732399726        1.4590132946        3.9002936422
 C         -2.9488479953        0.5720968362        3.5827572199
 C         -2.8176523194        0.0497802588        2.3059883714
 C         -3.7324387162        0.4523451447        1.3440282058
 C         -4.7969857891        1.3285809648        1.6677347915
 C         -4.9106976865        1.8365436754        2.9548242035
 C         -5.5803228806        1.4769752589        0.4731345231
 C         -6.7154791844        2.2122866662        0.1610509973
 C         -7.2076464913        2.1526532495       -1.1310423566
 C         -6.5736026409        1.3898481116       -2.1072830750
 C         -5.4392398662        0.6481784770       -1.8191658632
 C         -4.9585552849        0.6786784222       -0.5184700730
 N         -3.8435624933        0.0689385119        0.0215249980
 C         -2.9704153600       -0.7909231481       -0.6435209854
 C         -3.4885697770       -1.8320287345       -1.4333787033
 C         -2.6139252067       -2.7076804456       -2.0791419139
 C         -1.2603965612       -2.5262676693       -1.9358033725
 S         -0.0056597635       -3.5128072278       -2.6596766161
 C          1.2518998438       -2.5503255189       -1.9091490163
 C          2.6044852794       -2.7576115048       -2.0236721983
 C          3.4816316776       -1.8911887370       -1.3693454559
 C          2.9674019661       -0.8306709619       -0.6025884510
 N          3.8457440319        0.0340259110        0.0490768474
 C          3.7317134269        0.4601796445        1.3580045829
 C          2.8084610083        0.0977352310        2.3278686425
 C          2.9365896382        0.6625315492        3.5868249327
 C          3.9664350824        1.5513521795        3.8802999625
 C          4.9123656732        1.8889282972        2.9281812621
 C          4.8015559958        1.3386151383        1.6584011574
 C          5.5902635992        1.4446275507        0.4627929886
 C          6.7300970536        2.1641930074        0.1311729574
 C          7.2237269483        2.0641505261       -1.1577392231
 C          6.5865096907        1.2772373108       -2.1124893314
 C          5.4479065393        0.5503511635       -1.8045623670
 C          4.9661718599        0.6206921715       -0.5058648053
 C          1.6003265278       -0.6213935080       -0.4822797636
 C          0.7022566365       -1.4810057138       -1.1372563067
 C         -0.7067691525       -1.4692065797       -1.1503068424
 C         -1.6022742080       -0.6011427374       -0.5032061941
 H         -4.0425829189        1.8466613178        4.9056253734
 H         -2.2452540974        0.2786118298        4.3470571744
 H         -2.0371512093       -0.6584751674        2.0752578589
 H         -5.7173368303        2.5063599559        3.2100601141
 H         -7.1970982994        2.8211135528        0.9108454443
 H         -8.0912746321        2.7154434894       -1.3923684545
 H         -6.9695450166        1.3786852357       -3.1114188306
 H         -4.9401610782        0.0780166083       -2.5869799270
 H         -4.5527648659       -1.9860486833       -1.4895762929
 H         -3.0004406279       -3.5263309744       -2.6657881248
 H          2.9876615886       -3.5872521346       -2.5969157986
 H          4.5439334736       -2.0635250307       -1.4041737006
 H          2.0228185437       -0.6108632125        2.1165771977
 H          2.2257438208        0.4018965531        4.3562912189
 H          4.0326270745        1.9733507894        4.8719348179
 H          5.7222721767        2.5618742010        3.1647363251
 H          7.2145278289        2.7911114983        0.8638647518
 H          8.1108640205        2.6139727394       -1.4338903148
 H          6.9830578446        1.2348679044       -3.1153839744
 H          4.9462306338       -0.0385091948       -2.5564111042
 H          1.2275149293        0.2298939274        0.0642766566
 H         -1.2257119910        0.2385886243        0.0585071671
  61
  -97.3942200100000       0.140095770950589      !
 C         -4.2316213339        1.2567284374        3.9832186085
 C         -3.2458404615        0.3117477574        3.7124016026
 C         -3.0326161625       -0.1590160852        2.4273984926
 C         -3.8296093460        0.3497868221        1.4120839530
 C         -4.8512060585        1.2929876328        1.6826851969
 C         -5.0458088055        1.7500553381        2.9786166322
 C         -5.5060759059        1.5539278961        0.4304543978
 C         -6.5381050178        2.3989835451        0.0470133763
 C         -6.9059575474        2.4311577404       -1.2868507500
 C         -6.2527567794        1.6463960705       -2.2329615084
 C         -5.2200920296        0.7962472499       -1.8745802183
 C         -4.8611326646        0.7439069900       -0.5357492641
 N         -3.8513101465        0.0265735056        0.0718559824
 C         -2.9722268272       -0.8438043779       -0.5773184140
 C         -3.4905811891       -1.8431539516       -1.4159541614
 C         -2.6163075797       -2.7108050934       -2.0744541061
 C         -1.2640303893       -2.5454342119       -1.9074653920
 S         -0.0100210692       -3.5065380389       -2.6690374258
 C          1.2478632123       -2.5595603309       -1.9033420285
 C          2.6007002798       -2.7409291727       -2.0561280714
 C          3.4797493829       -1.8782990647       -1.4008353041
 C          2.9675688014       -0.8425952583       -0.5972749005
 N          3.8464552401        0.0287985833        0.0417486908
 C          3.7462735722        0.4505677108        1.3538509162
 C          2.8524671741        0.0613549168        2.3404178944
 C          2.9888165809        0.6282398950        3.5982324361
 C          3.9989089555        1.5452862763        3.8727481605
 C          4.9191061396        1.9072825544        2.9042465651
 C          4.8002902689        1.3538830639        1.6362106496
 C          5.5667775034        1.4770615173        0.4285065147
 C          6.6872822785        2.2197918390        0.0813140970
 C          7.1657306511        2.1291737674       -1.2142399808
 C          6.5309605073        1.3301514796       -2.1602972273
 C          5.4099552822        0.5814004683       -1.8368491591
 C          4.9453983046        0.6402576489       -0.5314822073
 C          1.6002314392       -0.6635834044       -0.4337472088
 C          0.6995853834       -1.5231706076       -1.0846381567
 C         -0.7096817194       -1.5236451964       -1.0782340010
 C         -1.6062795415       -0.6846389600       -0.3926177822
 H         -4.3686334675        1.5998881108        4.9977897417
 H         -2.6386357626       -0.0664514083        4.5209964486
 H         -2.2797086342       -0.9051745225        2.2247969284
 H         -5.8229077770        2.4667527355        3.1961407819
 H         -7.0349955124        3.0226351648        0.7743110391
 H         -7.7063534113        3.0825736540       -1.6042899345
 H         -6.5525111327        1.7044364930       -3.2683777183
 H         -4.7026879165        0.2051999352       -2.6141672546
 H         -4.5563651078       -1.9670219932       -1.5089786909
 H         -3.0023370225       -3.5035463354       -2.6959091214
 H          2.9823505877       -3.5465237850       -2.6637453457
 H          4.5432219626       -2.0338588541       -1.4637623015
 H          2.0833061857       -0.6691612151        2.1437707158
 H          2.2998998498        0.3471325710        4.3803863306
 H          4.0718882516        1.9687597243        4.8632937964
 H          5.7156936394        2.6003632209        3.1270724643
 H          7.1683391002        2.8570446533        0.8073555223
 H          8.0382255695        2.6962886283       -1.5022019765
 H          6.9141973493        1.2954872444       -3.1687846955
 H          4.9094618930       -0.0142633843       -2.5839736474
 H          1.2266993471        0.1722483541        0.1357173001
 H         -1.2324000639        0.1148591177        0.2272146697
  61
  -97.3940631200000       0.118665199491645      !
 C         -7.2822026188        0.9254201904        1.8525274109
 C         -6.6435241698       -0.2782526120        2.1362493163
 C         -5.4863470381       -0.6540096218        1.4737312802
 C         -4.9869272619        0.2043948137        0.5052363076
 C         -5.6147052239        1.4443388002        0.2312411946
 C         -6.7730548880        1.7998800817        0.9083408733
 C         -4.8084783771        2.0991882419       -0.7608567879
 C         -4.9170330789        3.3073962250       -1.4357226570
 C         -3.9542439604        3.6281500514       -2.3768887243
 C         -2.9078291081        2.7557279915       -2.6614871764
 C         -2.7800273474        1.5437804861       -2.0021011696
 C         -3.7236026887        1.2305226233       -1.0346331159
 N         -3.8458851218        0.0918095664       -0.2637703154
 C         -2.9656622956       -0.9909433180       -0.2656160212
 C         -3.4826262715       -2.2953534156       -0.3531566326
 C         -2.6086575624       -3.3837017024       -0.3616728750
 C         -1.2581638365       -3.1543870597       -0.2696703567
 S         -0.0084854691       -4.3826124001       -0.2329326651
 C          1.2465107061       -3.1691330901       -0.0829480394
 C          2.5948790734       -3.4126266438        0.0054672344
 C          3.4731706465       -2.3330498202        0.1107207928
 C          2.9629670495       -1.0227910370        0.1336438125
 N          3.8448352215        0.0508333885        0.2562914281
 C          5.0161234457        0.2248897157       -0.4540297120
 C          5.5513387989       -0.5445277195       -1.4766128909
 C          6.7375136075       -0.1196376206       -2.0532305993
 C          7.3694201959        1.0473838947       -1.6339081355
 C          6.8245332105        1.8364677669       -0.6359551691
 C          5.6372740192        1.4298455877       -0.0425517948
 C          4.7950361609        1.9972989059        0.9729270612
 C          4.8819131800        3.1382209688        1.7591511392
 C          3.8849532707        3.3785714806        2.6885158634
 C          2.8263059662        2.4903415691        2.8533425470
 C          2.7201257852        1.3440695771        2.0817860456
 C          3.6973671339        1.1148808962        1.1244257790
 C          1.6002928503       -0.7742325976        0.0435489570
 C          0.6999562718       -1.8486482684       -0.0660576287
 C         -0.7048681745       -1.8402283064       -0.1748909022
 C         -1.6005429106       -0.7560461063       -0.1798928375
 H         -8.1837823365        1.1831711673        2.3877418098
 H         -7.0536147142       -0.9309282031        2.8918710574
 H         -4.9840275136       -1.5778531391        1.7146933818
 H         -7.2590281547        2.7418951379        0.7055090782
 H         -5.7393849256        3.9762044616       -1.2330933825
 H         -4.0207438288        4.5640668592       -2.9111733400
 H         -2.1837063906        3.0242465329       -3.4157832187
 H         -1.9800295185        0.8619249466       -2.2455224996
 H         -4.5427643882       -2.4467469278       -0.4656679529
 H         -2.9923939703       -4.3882966881       -0.4454139227
 H          2.9730826944       -4.4229063039        0.0070470818
 H          4.5299220912       -2.5006397425        0.2313420621
 H          5.0552264398       -1.4374542769       -1.8233926133
 H          7.1763152217       -0.7042696739       -2.8475223014
 H          8.2944277292        1.3449483587       -2.1046772234
 H          7.3065673092        2.7510252232       -0.3262894868
 H          5.7129773419        3.8177549289        1.6486691404
 H          3.9324524665        4.2629991096        3.3060367024
 H          2.0743977473        2.6937856738        3.6006362921
 H          1.9106743181        0.6472571673        2.2344141681
 H          1.2338958013        0.2393516291        0.0099369941
 H         -1.2283700169        0.2496050568       -0.0661160340
  61
  -97.3939952900000       0.110446221826104      !
 C         -7.1097668219       -0.2148146199        2.8104198932
 C         -6.4554643810       -1.4103229402        2.5285048821
 C         -5.3489401852       -1.4476889001        1.6949025482
 C         -4.9188529443       -0.2537578717        1.1350215321
 C         -5.5599383165        0.9715757906        1.4430295734
 C         -6.6655186310        0.9849732695        2.2824999109
 C         -4.8279560526        1.9992512381        0.7574062908
 C         -4.9822802159        3.3752120164        0.6542652284
 C         -4.0942896100        4.0829672404       -0.1370394571
 C         -3.0801984542        3.4350079941       -0.8358808592
 C         -2.9086072241        2.0622504762       -0.7499987197
 C         -3.7722720987        1.3513264362        0.0700974066
 N         -3.8397171553       -0.0078797290        0.3087371881
 C         -2.9744791204       -0.9659741982       -0.2177439868
 C         -3.5084272624       -2.1390104493       -0.7820901797
 C         -2.6497942570       -3.0921419567       -1.3308458367
 C         -1.2956665233       -2.8662201675       -1.3012405419
 S         -0.0621520735       -3.9384175972       -1.9307284108
 C          1.2103485512       -2.8274791680       -1.4610959196
 C          2.5533565634       -3.0049834176       -1.6825089433
 C          3.4440093711       -2.0104482057       -1.2737536768
 C          2.9527221290       -0.8623182236       -0.6298463679
 N          3.8507737101        0.1258603395       -0.2215979207
 C          3.8860102267        0.7174950077        1.0245173580
 C          3.1200991046        0.4488977448        2.1495459989
 C          3.3877800399        1.1714102507        3.3008029366
 C          4.3986526225        2.1275898577        3.3371885895
 C          5.1852884326        2.3797351934        2.2267585651
 C          4.9344918331        1.6691855957        1.0610784239
 C          5.5492678568        1.6478119550       -0.2372016491
 C          6.5883413586        2.3637715289       -0.8152612680
 C          6.9116869968        2.1099917382       -2.1367910022
 C          6.2052333737        1.1707069171       -2.8825906007
 C          5.1645197986        0.4445365464       -2.3275055836
 C          4.8528952266        0.6749577290       -0.9954854201
 C          1.5966105524       -0.6851967938       -0.3948741335
 C          0.6819331892       -1.6672908989       -0.8162775754
 C         -0.7244618094       -1.6857194869       -0.7316981015
 C         -1.6056674754       -0.7374590378       -0.1831221511
 H         -7.9707569842       -0.2253212878        3.4618687135
 H         -6.8128743772       -2.3277460952        2.9709647226
 H         -4.8335802866       -2.3751267670        1.5002075211
 H         -7.1626795498        1.9132339945        2.5187279249
 H         -5.7823853215        3.8773377521        1.1760711296
 H         -4.1959349024        5.1541483633       -0.2271980757
 H         -2.4166016911        4.0103891459       -1.4634769983
 H         -2.1369208293        1.5652190488       -1.3169279843
 H         -4.5755301831       -2.2688806572       -0.8424049371
 H         -3.0488652703       -3.9862587217       -1.7837269688
 H          2.9198240757       -3.9008515950       -2.1587497671
 H          4.5050043730       -2.1412477537       -1.4037190387
 H          2.3502478700       -0.3070441228        2.1344922019
 H          2.8042073447        0.9828985914        4.1891994495
 H          4.5776491612        2.6711198587        4.2527810193
 H          5.9818577424        3.1069338055        2.2647307161
 H          7.1254199134        3.1066066447       -0.2456286747
 H          7.7180388962        2.6556793263       -2.6034689791
 H          6.4695136209        1.0071932875       -3.9163724107
 H          4.6068316047       -0.2667921466       -2.9166063327
 H          1.2384762459        0.2247431512        0.0598396940
 H         -1.2135847274        0.1416011410        0.3028558023
