  61
        -97.39460895
 C         -7.2347189972        0.3691330139        2.3588668657
 C         -6.5986742572       -0.8683760169        2.3313390796
 C         -5.4577431912       -1.0761357458        1.5728426959
 C         -4.9728824171       -0.0119448849        0.8270473443
 C         -5.5970983725        1.2589646122        0.8739413664
 C         -6.7382861510        1.4439884543        1.6422821241
 C         -4.8092703212        2.1319914240        0.0495472425
 C         -4.9229076309        3.4684423725       -0.3088223934
 C         -3.9809032925        4.0050601858       -1.1690062127
 C         -2.9521816051        3.2235994814       -1.6865635383
 C         -2.8205374819        1.8870152185       -1.3450767288
 C         -3.7398396142        1.3521550165       -0.4546555682
 N         -3.8518635791        0.0610288219        0.0236302751
 C         -2.9742988534       -0.9842197216       -0.2604367549
 C         -3.4889367933       -2.2417414618       -0.6218724023
 C         -2.6115299494       -3.2856122968       -0.9195295858
 C         -1.2587083340       -3.0624660488       -0.8456881568
 S         -0.0024578487       -4.2384907441       -1.1750100807
 C          1.2529953051       -3.0595535004       -0.8508433302
 C          2.6058798774       -3.2807632935       -0.9289918061
 C          3.4822620276       -2.2360065605       -0.6313748469
 C          2.9667289037       -0.9797490878       -0.2677964230
 N          3.8463854727        0.0628745056        0.0218809392
 C          4.9609349730       -0.0190350156        0.8330885457
 C          5.4284903758       -1.0864360105        1.5854557973
 C          6.5651167441       -0.8884125058        2.3525836065
 C          7.2138799778        0.3425937191        2.3818356583
 C          6.7347868626        1.4205416750        1.6580330038
 C          5.5976777319        1.2454267000        0.8813106653
 C          4.8239482285        2.1240530782        0.0492895239
 C          4.9541199505        3.4580228605       -0.3126728147
 C          4.0222700327        4.0023696124       -1.1790545657
 C          2.9866054483        3.2310430286       -1.6980548132
 C          2.8387397895        1.8969064347       -1.3536439443
 C          3.7492703700        1.3539446891       -0.4589909387
 C          1.5992812021       -0.7532459509       -0.1891649472
 C          0.7014297052       -1.7953086586       -0.4783749280
 C         -0.7079853489       -1.7969396470       -0.4756138011
 C         -1.6067421444       -0.7571144049       -0.1828077986
 H         -8.1232298745        0.4925067220        2.9597761241
 H         -6.9982520155       -1.6831495662        2.9159779420
 H         -4.9570092291       -2.0315701299        1.5762052522
 H         -7.2219342012        2.4079466784        1.6813690792
 H         -5.7326743964        4.0710374202        0.0729049952
 H         -4.0502665096        5.0434789043       -1.4563321820
 H         -2.2451639167        3.6642003216       -2.3730793562
 H         -2.0365429702        1.2813079694       -1.7722681852
 H         -4.5520702922       -2.3787762027       -0.7235376541
 H         -2.9948933303       -4.2479023953       -1.2210695585
 H          2.9899861348       -4.2418878299       -1.2329248405
 H          4.5455668365       -2.3714550569       -0.7336253284
 H          4.9178950015       -2.0367331158        1.5859904122
 H          6.9509278208       -1.7053212888        2.9430266602
 H          8.0985041342        0.4584504186        2.9898633682
 H          7.2278472184        2.3796548281        1.6991514535
 H          5.7692851443        4.0525418371        0.0704585669
 H          4.1051673953        5.0388545310       -1.4699895964
 H          2.2874097434        3.6778591892       -2.3885599843
 H          2.0485882630        1.2991119116       -1.7805759587
 H          1.2255389466        0.2016691088        0.1439738167
 H         -1.2335004301        0.1972607725        0.1523983350
  61
        -97.39422001
 C         -4.2316213339        1.2567284374        3.9832186085
 C         -3.2458404615        0.3117477574        3.7124016026
 C         -3.0326161625       -0.1590160852        2.4273984926
 C         -3.8296093460        0.3497868221        1.4120839530
 C         -4.8512060585        1.2929876328        1.6826851969
 C         -5.0458088055        1.7500553381        2.9786166322
 C         -5.5060759059        1.5539278961        0.4304543978
 C         -6.5381050178        2.3989835451        0.0470133763
 C         -6.9059575474        2.4311577404       -1.2868507500
 C         -6.2527567794        1.6463960705       -2.2329615084
 C         -5.2200920296        0.7962472499       -1.8745802183
 C         -4.8611326646        0.7439069900       -0.5357492641
 N         -3.8513101465        0.0265735056        0.0718559824
 C         -2.9722268272       -0.8438043779       -0.5773184140
 C         -3.4905811891       -1.8431539516       -1.4159541614
 C         -2.6163075797       -2.7108050934       -2.0744541061
 C         -1.2640303893       -2.5454342119       -1.9074653920
 S         -0.0100210692       -3.5065380389       -2.6690374258
 C          1.2478632123       -2.5595603309       -1.9033420285
 C          2.6007002798       -2.7409291727       -2.0561280714
 C          3.4797493829       -1.8782990647       -1.4008353041
 C          2.9675688014       -0.8425952583       -0.5972749005
 N          3.8464552401        0.0287985833        0.0417486908
 C          3.7462735722        0.4505677108        1.3538509162
 C          2.8524671741        0.0613549168        2.3404178944
 C          2.9888165809        0.6282398950        3.5982324361
 C          3.9989089555        1.5452862763        3.8727481605
 C          4.9191061396        1.9072825544        2.9042465651
 C          4.8002902689        1.3538830639        1.6362106496
 C          5.5667775034        1.4770615173        0.4285065147
 C          6.6872822785        2.2197918390        0.0813140970
 C          7.1657306511        2.1291737674       -1.2142399808
 C          6.5309605073        1.3301514796       -2.1602972273
 C          5.4099552822        0.5814004683       -1.8368491591
 C          4.9453983046        0.6402576489       -0.5314822073
 C          1.6002314392       -0.6635834044       -0.4337472088
 C          0.6995853834       -1.5231706076       -1.0846381567
 C         -0.7096817194       -1.5236451964       -1.0782340010
 C         -1.6062795415       -0.6846389600       -0.3926177822
 H         -4.3686334675        1.5998881108        4.9977897417
 H         -2.6386357626       -0.0664514083        4.5209964486
 H         -2.2797086342       -0.9051745225        2.2247969284
 H         -5.8229077770        2.4667527355        3.1961407819
 H         -7.0349955124        3.0226351648        0.7743110391
 H         -7.7063534113        3.0825736540       -1.6042899345
 H         -6.5525111327        1.7044364930       -3.2683777183
 H         -4.7026879165        0.2051999352       -2.6141672546
 H         -4.5563651078       -1.9670219932       -1.5089786909
 H         -3.0023370225       -3.5035463354       -2.6959091214
 H          2.9823505877       -3.5465237850       -2.6637453457
 H          4.5432219626       -2.0338588541       -1.4637623015
 H          2.0833061857       -0.6691612151        2.1437707158
 H          2.2998998498        0.3471325710        4.3803863306
 H          4.0718882516        1.9687597243        4.8632937964
 H          5.7156936394        2.6003632209        3.1270724643
 H          7.1683391002        2.8570446533        0.8073555223
 H          8.0382255695        2.6962886283       -1.5022019765
 H          6.9141973493        1.2954872444       -3.1687846955
 H          4.9094618930       -0.0142633843       -2.5839736474
 H          1.2266993471        0.1722483541        0.1357173001
 H         -1.2324000639        0.1148591177        0.2272146697
  61
        -97.39406312
 C         -7.2822026188        0.9254201904        1.8525274109
 C         -6.6435241698       -0.2782526120        2.1362493163
 C         -5.4863470381       -0.6540096218        1.4737312802
 C         -4.9869272619        0.2043948137        0.5052363076
 C         -5.6147052239        1.4443388002        0.2312411946
 C         -6.7730548880        1.7998800817        0.9083408733
 C         -4.8084783771        2.0991882419       -0.7608567879
 C         -4.9170330789        3.3073962250       -1.4357226570
 C         -3.9542439604        3.6281500514       -2.3768887243
 C         -2.9078291081        2.7557279915       -2.6614871764
 C         -2.7800273474        1.5437804861       -2.0021011696
 C         -3.7236026887        1.2305226233       -1.0346331159
 N         -3.8458851218        0.0918095664       -0.2637703154
 C         -2.9656622956       -0.9909433180       -0.2656160212
 C         -3.4826262715       -2.2953534156       -0.3531566326
 C         -2.6086575624       -3.3837017024       -0.3616728750
 C         -1.2581638365       -3.1543870597       -0.2696703567
 S         -0.0084854691       -4.3826124001       -0.2329326651
 C          1.2465107061       -3.1691330901       -0.0829480394
 C          2.5948790734       -3.4126266438        0.0054672344
 C          3.4731706465       -2.3330498202        0.1107207928
 C          2.9629670495       -1.0227910370        0.1336438125
 N          3.8448352215        0.0508333885        0.2562914281
 C          5.0161234457        0.2248897157       -0.4540297120
 C          5.5513387989       -0.5445277195       -1.4766128909
 C          6.7375136075       -0.1196376206       -2.0532305993
 C          7.3694201959        1.0473838947       -1.6339081355
 C          6.8245332105        1.8364677669       -0.6359551691
 C          5.6372740192        1.4298455877       -0.0425517948
 C          4.7950361609        1.9972989059        0.9729270612
 C          4.8819131800        3.1382209688        1.7591511392
 C          3.8849532707        3.3785714806        2.6885158634
 C          2.8263059662        2.4903415691        2.8533425470
 C          2.7201257852        1.3440695771        2.0817860456
 C          3.6973671339        1.1148808962        1.1244257790
 C          1.6002928503       -0.7742325976        0.0435489570
 C          0.6999562718       -1.8486482684       -0.0660576287
 C         -0.7048681745       -1.8402283064       -0.1748909022
 C         -1.6005429106       -0.7560461063       -0.1798928375
 H         -8.1837823365        1.1831711673        2.3877418098
 H         -7.0536147142       -0.9309282031        2.8918710574
 H         -4.9840275136       -1.5778531391        1.7146933818
 H         -7.2590281547        2.7418951379        0.7055090782
 H         -5.7393849256        3.9762044616       -1.2330933825
 H         -4.0207438288        4.5640668592       -2.9111733400
 H         -2.1837063906        3.0242465329       -3.4157832187
 H         -1.9800295185        0.8619249466       -2.2455224996
 H         -4.5427643882       -2.4467469278       -0.4656679529
 H         -2.9923939703       -4.3882966881       -0.4454139227
 H          2.9730826944       -4.4229063039        0.0070470818
 H          4.5299220912       -2.5006397425        0.2313420621
 H          5.0552264398       -1.4374542769       -1.8233926133
 H          7.1763152217       -0.7042696739       -2.8475223014
 H          8.2944277292        1.3449483587       -2.1046772234
 H          7.3065673092        2.7510252232       -0.3262894868
 H          5.7129773419        3.8177549289        1.6486691404
 H          3.9324524665        4.2629991096        3.3060367024
 H          2.0743977473        2.6937856738        3.6006362921
 H          1.9106743181        0.6472571673        2.2344141681
 H          1.2338958013        0.2393516291        0.0099369941
 H         -1.2283700169        0.2496050568       -0.0661160340
