  57
  -92.8008982380000       0.239393601463502      !
 C         -6.7182330076       -3.7242961593       -0.0464151511
 O         -5.3458197711       -4.0317400222       -0.0445569617
 C         -4.4499553247       -3.0010036700       -0.0279403816
 C         -3.1008473086       -3.3898257991       -0.0412583654
 C         -2.0777519530       -2.4684988507       -0.0189075332
 C         -2.4122457649       -1.1214350982        0.0299562877
 C         -3.7633450021       -0.7180623194        0.0100885642
 C         -4.7886666121       -1.6580653083       -0.0132753854
 C         -3.7630945507        0.7176473296       -0.0003066386
 C         -4.7880571659        1.6583535393        0.0016969335
 C         -4.4487112050        3.0011165541        0.0198003535
 O         -5.3438566112        4.0325506177        0.0144563347
 C         -6.7160649114        3.7264823041       -0.0220250158
 C         -3.0998898298        3.3891505402        0.0601702976
 C         -2.0772127787        2.4671332872        0.0588707672
 C         -2.4117181750        1.1202803027        0.0038846590
 N         -1.5986142128       -0.0006282091        0.0242904918
 C         -0.2083606550       -0.0000807752        0.0216260580
 C          0.5016477461       -0.8313679655        0.8886450147
 C          1.8792793175       -0.8372646339        0.8750849711
 C          2.5841861016        0.0001075550        0.0111157895
 C          4.0476685581       -0.0001922584        0.0025287659
 C          4.7794244447        1.1968828144        0.0194750802
 C          4.1360396802        2.4488684671        0.1080274245
 N          3.6597315411        3.4886044518        0.2035473982
 C          6.1857608009        1.1488063778        0.0043506565
 C          7.0037753802        2.3948492311        0.0201548445
 N          6.8388588942        0.0005745995       -0.0224307838
 C          6.1859849237       -1.1479753739       -0.0366381864
 C          7.0043347235       -2.3935722547       -0.0695763531
 C          4.7795083665       -1.1968791370       -0.0260578041
 C          4.1359564572       -2.4497627080       -0.0995278468
 N          3.6612139385       -3.4912947507       -0.1818705249
 C          1.8726176885        0.8379029234       -0.8470885037
 C          0.4951510596        0.8318710893       -0.8501391826
 H         -7.0008748177       -3.1519619337       -0.9362897569
 H         -7.2346762921       -4.6826243041       -0.0567150371
 H         -7.0069539336       -3.1675623182        0.8513449496
 H         -2.8864266358       -4.4458837647       -0.0757101511
 H         -1.0502466968       -2.7948867851       -0.0554865863
 H         -5.8138050942       -1.3254707347       -0.0271787766
 H         -5.8135698328        1.3266196929       -0.0033841268
 H         -6.9792662688        3.1667164438       -0.9257183591
 H         -7.2314882600        4.6853775765       -0.0301650257
 H         -7.0249607890        3.1577385300        0.8613372866
 H         -2.8854326200        4.4450889800        0.0976524051
 H         -1.0502672439        2.7926429640        0.1150843976
 H         -0.0343994618       -1.4543246445        1.5870378688
 H          2.4155163323       -1.4697722819        1.5665492739
 H          6.7613467977        2.9978411615        0.8944384219
 H          6.7917584312        2.9980137359       -0.8621923315
 H          8.0580192816        2.1345073850        0.0360260573
 H          6.7549466385       -2.9884910322       -0.9479076478
 H          6.7997869807       -3.0053520710        0.8087631909
 H          8.0583724371       -2.1322717298       -0.0925164531
 H          2.4034201926        1.4704339896       -1.5427703926
 H         -0.0463155034        1.4549426973       -1.5442685194
  57
  -92.8005019639000       0.157397406221182      !
 C         -6.7207344105       -3.8889708900       -0.1611239781
 O         -5.3449157928       -4.1820437781       -0.1753718772
 C         -4.4605901405       -3.1426719593       -0.1308338582
 C         -3.1073124479       -3.5161072441       -0.1284441353
 C         -2.0944942893       -2.5833284867       -0.0931758091
 C         -2.4443287287       -1.2395651004       -0.0714309580
 C         -3.7999792950       -0.8542972662       -0.0423985145
 C         -4.8146218677       -1.8041497276       -0.0771717729
 C         -3.8192691997        0.5799907951        0.0412838724
 C         -4.8418325499        1.5123168709        0.0716915668
 C         -4.5206601077        2.8651148276        0.1208003479
 O         -5.5846243495        3.7217238959        0.1560508573
 C         -5.3387243998        5.1065429572        0.1899904660
 C         -3.1825586230        3.2693769833        0.1172891046
 C         -2.1520554257        2.3460798504        0.0862983949
 C         -2.4693248287        0.9988525652        0.0714806068
 N         -1.6430455827       -0.1112603826        0.0013734852
 C         -0.2535429504       -0.0895263527        0.0091885419
 C          0.4328906131        0.7106314827        0.9237019096
 C          1.8094190836        0.7537783329        0.9160027679
 C          2.5385175363       -0.0157370053        0.0097522374
 C          4.0007959694        0.0367432186        0.0023868232
 C          4.7784374307       -1.1301132044       -0.0412010569
 C          4.1850492230       -2.4095343548       -0.0261641948
 N          3.7510925378       -3.4715512531        0.0061756064
 C          6.1820672033       -1.0265761792       -0.0451099361
 C          7.0479577515       -2.2393291369       -0.0880534041
 N          6.7901751874        0.1456682852       -0.0048739029
 C          6.0930110025        1.2673497598        0.0361912252
 C          6.8621321317        2.5440200363        0.0713738545
 C          4.6859757145        1.2610120989        0.0388430081
 C          3.9937773849        2.4898102832        0.0215151535
 N          3.4762107201        3.5137063953       -0.0153908619
 C          1.8515233449       -0.8296501472       -0.8904791703
 C          0.4741644408       -0.8599995388       -0.8986692076
 H         -7.0100626786       -3.3627373488        0.7544443399
 H         -7.0138749351       -3.2924638848       -1.0313061665
 H         -7.2269166215       -4.8520685924       -0.1977446454
 H         -2.8805114065       -4.5699819246       -0.1496916045
 H         -1.0636285110       -2.8999418034       -0.0665158029
 H         -5.8423509748       -1.4812245692       -0.0545919126
 H         -5.8783640729        1.2182980452        0.0505133788
 H         -4.7799152602        5.3953200375        1.0863877421
 H         -6.3202387138        5.5773793838        0.2118614182
 H         -4.7973951550        5.4423541887       -0.7006951128
 H         -2.9285019076        4.3169633416        0.1318737380
 H         -1.1281966904        2.6856211563        0.0580542577
 H         -0.1214380222        1.2804392303        1.6526062683
 H          2.3269497859        1.3619581732        1.6427882889
 H          6.8354704550       -2.8269919752       -0.9806023735
 H          6.8531178745       -2.8744567835        0.7756838370
 H          8.0913661505       -1.9379796939       -0.0900632562
 H          6.5693985803        3.1435881250        0.9324821914
 H          6.6558700034        3.1323687253       -0.8225193835
 H          7.9245314925        2.3242725655        0.1213913048
 H          2.4008836645       -1.4120911965       -1.6148975869
 H         -0.0486649068       -1.4611109262       -1.6256614882
  57
  -92.8004510406000       0.149140241823475      !
 C         -6.7235573549       -3.3523119569       -1.6151918607
 O         -5.3518226405       -3.6415021727       -1.7268701901
 C         -4.4547551149       -2.7120251351       -1.2830845109
 C         -3.1061632919       -3.0747047581       -1.4292426440
 C         -2.0822748419       -2.2402594171       -1.0403532491
 C         -2.4141558709       -1.0045227965       -0.5004112227
 C         -3.7651612310       -0.6446371407       -0.3159011016
 C         -4.7916466937       -1.4958118260       -0.7126222987
 C         -3.7634618229        0.6432366841        0.3180111118
 C         -4.7875983344        1.4952929095        0.7189201076
 C         -4.4472651985        2.7113682273        1.2876492342
 O         -5.3415144827        3.6418668027        1.7347702254
 C         -6.7141890696        3.3556982330        1.6249021780
 C         -3.0978281663        3.0730526076        1.4281458555
 C         -2.0762985087        2.2377036233        1.0351859162
 C         -2.4115094892        1.0020926723        0.4970281125
 N         -1.5994618723       -0.0014086338       -0.0034403470
 C         -0.2078723656       -0.0021359247       -0.0037195912
 C          0.4979674835        0.3548244826        1.1452663091
 C          1.8760502422        0.3509671078        1.1448317595
 C          2.5838988523       -0.0020794231       -0.0031097699
 C          4.0489181908       -0.0003940501       -0.0018741924
 C          4.7810947695        0.6103529105       -1.0308538992
 C          4.1378580644        1.2941739133       -2.0837741000
 N          3.6656273151        1.8782939437       -2.9514169349
 C          6.1876537459        0.5890635941       -0.9866254209
 C          7.0066336906        1.2249694220       -2.0577375154
 N          6.8401325101        0.0066478673        0.0035970659
 C          6.1868088678       -0.5800219717        0.9907017065
 C          7.0044351704       -1.2164159450        2.0624947706
 C          4.7801618346       -0.6083960050        1.0293623516
 C          4.1372608747       -1.2960287815        2.0798053936
 N          3.6657378867       -1.8833005310        2.9454554017
 C          1.8766687566       -0.3552773532       -1.1513008815
 C          0.4984839140       -0.3592894699       -1.1522889999
 H         -6.9929169968       -2.4561242972       -2.1838217441
 H         -7.2409979251       -4.2133942399       -2.0345893445
 H         -7.0238195211       -3.2241398236       -0.5700450095
 H         -2.8935531817       -4.0413065747       -1.8570920850
 H         -1.0551035724       -2.5539308597       -1.1423689785
 H         -5.8164901998       -1.1976743228       -0.5625121927
 H         -5.8133366213        1.1978397107        0.5737300856
 H         -7.0157584194        3.2273026851        0.5799963108
 H         -7.2292870534        4.2183448537        2.0441025038
 H         -6.9851201217        2.4605635211        2.1946711021
 H         -2.8826452846        4.0399524671        1.8540648020
 H         -1.0484960603        2.5509702578        1.1318517512
 H         -0.0408000543        0.6138579824        2.0430302934
 H          2.4094565315        0.6399152760        2.0381372072
 H          6.7250711808        2.2695630564       -2.1842055284
 H          6.8374747898        0.7225337533       -3.0101996530
 H          8.0587666781        1.1562591063       -1.7967317420
 H          6.7872696322       -2.2825729602        2.1211585408
 H          6.7666557704       -0.7804966447        3.0322442275
 H          8.0587967942       -1.0714621020        1.8462154984
 H          2.4103618050       -0.6454581575       -2.0440422175
 H         -0.0399540872       -0.6215038501       -2.0493761475
  57
  -92.8004274224000       0.145459024177112      !
 C         -6.7208035166       -3.7012454872       -0.3695283142
 O         -5.3495952045       -4.0134539431       -0.3524531648
 C         -4.4521780324       -2.9888819149       -0.2521653774
 C         -3.1041475485       -3.3813506792       -0.2459074766
 C         -2.0794809222       -2.4648588576       -0.1666694110
 C         -2.4103039073       -1.1172491008       -0.1049290581
 C         -3.7611635641       -0.7144725737       -0.0679285236
 C         -4.7883087926       -1.6493180620       -0.1478894726
 C         -3.7599638912        0.7144553598        0.0702741967
 C         -4.7854568538        1.6515436313        0.1449850399
 C         -4.4469320892        2.9905204506        0.2491580897
 O         -5.3426060985        4.0171453863        0.3438245493
 C         -6.7145071717        3.7075877459        0.3583661534
 C         -3.0980710571        3.3801529288        0.2482727975
 C         -2.0750261273        2.4614013656        0.1746275999
 C         -2.4084419415        1.1144371635        0.1127710443
 N         -1.5954088389       -0.0022934411        0.0059060121
 C         -0.2053756565       -0.0031482188        0.0064076652
 C          0.5020995781        0.7734956142        0.9250005403
 C          1.8797201538        0.7845986548        0.9128689068
 C          2.5867191898       -0.0024289392        0.0052131244
 C          4.0508433164       -0.0006360106        0.0020848446
 C          4.7797476314        1.1975504011       -0.0073872100
 C          4.1277461372        2.4471032002       -0.0617509967
 N          3.6397945581        3.4839333973       -0.1258152898
 C          6.1861186844        1.1509217391       -0.0185482985
 C          7.0023380617        2.3979180631       -0.0490794948
 N          6.8403153134        0.0029570170       -0.0098177885
 C          6.1891418269       -1.1466868421        0.0051220750
 C          7.0086066886       -2.3917550094        0.0271125795
 C          4.7828513101       -1.1969258287        0.0062748789
 C          4.1344027421       -2.4480790949        0.0663871519
 N          3.6486571129       -3.4854538990        0.1367744893
 C          1.8792497107       -0.7904718545       -0.9012603962
 C          0.5016627259       -0.7801793633       -0.9121760639
 H         -6.9763784952       -3.0601414760       -1.2197551358
 H         -7.2384368933       -4.6538277553       -0.4689354012
 H         -7.0342823575       -3.2149737046        0.5601889012
 H         -2.8915872090       -4.4368722739       -0.3016864772
 H         -1.0538898952       -2.7977218734       -0.1378358549
 H         -5.8129683275       -1.3160257969       -0.1214663832
 H         -5.8107054641        1.3204357486        0.1140121303
 H         -7.2305342742        4.6612780630        0.4551471125
 H         -6.9731089392        3.0683247372        1.2090823420
 H         -7.0270295304        3.2204528546       -0.5712674553
 H         -2.8834845937        4.4352872018        0.3038101636
 H         -1.0486271296        2.7920785336        0.1500091920
 H         -0.0355703392        1.3502430142        1.6606645260
 H          2.4146798040        1.3795872771        1.6381010942
 H          8.0570455784        2.1399505016       -0.0289357926
 H          6.7634078012        3.0316267190        0.8040763052
 H          6.7847736259        2.9686745269       -0.9514454382
 H          6.7977349380       -2.9661720782        0.9290085736
 H          8.0626017693       -2.1307685497        0.0012162337
 H          6.7661382312       -3.0232301403       -0.8270809506
 H          2.4138729781       -1.3853488002       -1.6268246535
 H         -0.0363490052       -1.3580294067       -1.6467162981
  57
  -92.8001634342000       0.110006942200681      !
 C         -6.8232071617       -3.2324556195       -1.6694593090
 O         -5.4619842211       -3.5756275390       -1.7599720656
 C         -4.5364405689       -2.6851906373       -1.2950273219
 C         -3.2010272970       -3.1012494026       -1.4181202013
 C         -2.1518026759       -2.3107621669       -1.0052064510
 C         -2.4439495418       -1.0651120480       -0.4650814373
 C         -3.7827098209       -0.6506708386       -0.3063969575
 C         -4.8348278430       -1.4581558488       -0.7262809245
 C         -3.7413083599        0.6364412711        0.3277601770
 C         -4.7370132568        1.5335509544        0.7016564067
 C         -4.3580603836        2.7367879441        1.2732360159
 O         -5.2210116872        3.7089490374        1.6925114855
 C         -6.6014022200        3.4894125841        1.5371553624
 C         -2.9981049921        3.0399235809        1.4464124086
 C         -2.0046229440        2.1600916424        1.0798444562
 C         -2.3798365532        0.9386909296        0.5357983755
 N         -1.5994487681       -0.0986369574        0.0531056222
 C         -0.2080219870       -0.1282315960        0.0503867168
 C          0.5044709484        0.2194311361        1.1982295168
 C          1.8825008611        0.2315450584        1.1859271147
 C          2.5833978643       -0.0979011338        0.0267782750
 C          4.0465930122       -0.0303987466        0.0011895763
 C          4.7233229952        0.6238678985       -1.0393006370
 C          4.0241088480        1.2714721309       -2.0793513501
 N          3.5036315989        1.8325088000       -2.9343963275
 C          6.1290695356        0.6879156816       -1.0192265257
 C          6.8881097993        1.3805298101       -2.0992556321
 N          6.8324589933        0.1447748328       -0.0416241145
 C          6.2324778237       -0.4813840438        0.9550996481
 C          7.1058371765       -1.0625890506        2.0142217196
 C          4.8308135498       -0.5949713512        1.0179512036
 C          4.2485030254       -1.3174310398        2.0803136970
 N          3.8252538555       -1.9315453532        2.9524465257
 C          1.8696636035       -0.4671328019       -1.1124832919
 C          0.4916570430       -0.4869416967       -1.1016949239
 H         -7.0474628711       -2.3245562902       -2.2393636442
 H         -7.3679244296       -4.0710691227       -2.1002751817
 H         -7.1351461508       -3.0955993883       -0.6286110503
 H         -3.0196602769       -4.0739574871       -1.8465639491
 H         -1.1361224955       -2.6650454944       -1.0887254130
 H         -5.8494618357       -1.1179410517       -0.5975521003
 H         -5.7709053888        1.2802441032        0.5326329574
 H         -6.8731707597        3.3698738635        0.4830597854
 H         -7.0874719292        4.3787402153        1.9348570111
 H         -6.9351490442        2.6120398622        2.1010716812
 H         -2.7515702715        3.9983143618        1.8744721755
 H         -0.9670658575        2.4297024044        1.1997169472
 H         -0.0296626198        0.4659959694        2.1022824805
 H          2.4204961561        0.5197869848        2.0766709753
 H          6.6919497051        0.9105571745       -3.0625475608
 H          7.9510058159        1.3326021567       -1.8815384443
 H          6.5760630396        2.4218232255       -2.1741387545
 H          6.9233330185       -2.1321467796        2.1143614216
 H          6.8893488541       -0.6021699278        2.9780881251
 H          8.1471872214       -0.8912529280        1.7571985472
 H          2.3986164953       -0.7472032782       -2.0112279115
 H         -0.0514563347       -0.7474229706       -1.9963580838
  57
  -92.7998540798000       7.929588568988298E-002 !
 C         -6.7045308384       -3.5356440973       -1.6144765265
 O         -5.3273107064       -3.8006305282       -1.7253656225
 C         -4.4480714030       -2.8515021158       -1.2888110799
 C         -3.0930772322       -3.1938720775       -1.4213543464
 C         -2.0850241174       -2.3387305809       -1.0347154843
 C         -2.4405647838       -1.1023470912       -0.5119529913
 C         -3.7981531925       -0.7616318274       -0.3448814059
 C         -4.8082968967       -1.6326211927       -0.7373355552
 C         -3.8238080829        0.5360154029        0.2706829319
 C         -4.8511144145        1.3845136966        0.6453411798
 C         -4.5371936097        2.6211664110        1.1996659848
 O         -5.6059826743        3.3973315603        1.5496399862
 C         -5.3687963018        4.6718006748        2.0955616040
 C         -3.2010886840        3.0019559154        1.3539658149
 C         -2.1660160919        2.1614647815        0.9826871247
 C         -2.4755223705        0.9178060870        0.4600456387
 N         -1.6443499381       -0.0814373048       -0.0187157680
 C         -0.2532484562       -0.0596902945       -0.0120483925
 C          0.4417005534        0.3215115462        1.1359929906
 C          1.8196567059        0.3423938169        1.1413188463
 C          2.5384561723       -0.0083792263       -0.0004955661
 C          4.0030509663        0.0219210596        0.0037400434
 C          4.7242547886        0.6383505883       -1.0297025056
 C          4.0693746546        1.3022719187       -2.0880364783
 N          3.5848935222        1.8738423189       -2.9573082671
 C          6.1309377913        0.6445582521       -0.9846857572
 C          6.9376210182        1.2911180723       -2.0587271576
 N          6.7939922841        0.0830927519        0.0106192476
 C          6.1511619822       -0.5074797852        1.0024055039
 C          6.9805896467       -1.1231113001        2.0772702171
 C          4.7452953250       -0.5625630993        1.0407710059
 C          4.1150825795       -1.2502370486        2.0989155440
 N          3.6521201656       -1.8356729004        2.9706612584
 C          1.8422462779       -0.3870990452       -1.1474549361
 C          0.4645184823       -0.4170440113       -1.1536915859
 H         -6.9919903992       -2.6527596519       -2.1948639485
 H         -7.2064182732       -4.4123886202       -2.0202617847
 H         -7.0043475903       -3.3979374660       -0.5703992538
 H         -2.8615400787       -4.1622622406       -1.8351871138
 H         -1.0524387129       -2.6380768116       -1.1243697738
 H         -5.8375670883       -1.3453140914       -0.5993580879
 H         -5.8860421189        1.1154217639        0.5118902983
 H         -4.8118472745        4.6109408908        3.0364144086
 H         -6.3532671867        5.0949707605        2.2885585614
 H         -4.8300623788        5.3174005347        1.3940906494
 H         -2.9529263897        3.9683882056        1.7625040132
 H         -1.1434558877        2.4895914495        1.0892036499
 H         -0.1055682195        0.5784819466        2.0292460337
 H          2.3441720631        0.6481452727        2.0343585355
 H          7.9937460034        1.1942542760       -1.8246845396
 H          6.6771544426        2.3455062803       -2.1464145013
 H          6.7331871508        0.8227069968       -3.0211239005
 H          8.0284951082       -0.9019675244        1.8959489257
 H          6.8367966833       -2.2036762762        2.0897987492
 H          6.6862774137       -0.7428122695        3.0547127463
 H          2.3848809964       -0.6739744287       -2.0358784383
 H         -0.0655262017       -0.6946184347       -2.0511004130
  57
  -92.7996080585000       6.112052740854777E-002 !
 C         -6.7169939756       -3.4739217925       -1.7176779921
 O         -5.3420576695       -3.7644290775       -1.7856614482
 C         -4.4595452907       -2.8308625014       -1.3235972522
 C         -3.1064573764       -3.1873436433       -1.4363378992
 C         -2.0953172783       -2.3452805615       -1.0295016854
 C         -2.4449356031       -1.1073466309       -0.5060770462
 C         -3.8013360871       -0.7571778099       -0.3503972106
 C         -4.8148287332       -1.6142143273       -0.7640238052
 C         -3.8233730874        0.5346887850        0.2771809394
 C         -4.8494806550        1.3828125776        0.6555337212
 C         -4.5341452849        2.6113963056        1.2267426061
 O         -5.6015671237        3.3855695368        1.5840515500
 C         -5.3625348666        4.6450007963        2.1633878547
 C         -3.1973326875        2.9861613567        1.3886099121
 C         -2.1635600990        2.1460391632        1.0125862503
 C         -2.4742880293        0.9073890962        0.4786363988
 N         -1.6452719674       -0.0944603884       -0.0004914517
 C         -0.2547502203       -0.0759667064        0.0030187500
 C          0.4453797406        0.3246213649        1.1415659309
 C          1.8231020239        0.3501622228        1.1397741079
 C          2.5395059339       -0.0231232029        0.0030551374
 C          4.0032790077        0.0154697929        0.0012235280
 C          4.7199247079        0.5771092394       -1.0671811323
 C          4.0634084060        1.1755628185       -2.1628188967
 N          3.5814818491        1.6978463233       -3.0636331550
 C          6.1265720251        0.5964884603       -1.0243926434
 C          6.9299797649        1.1672416827       -2.1429626063
 N          6.7947828035        0.1085435715        0.0058661953
 C          6.1573300629       -0.4260915629        1.0317697269
 C          6.9916618100       -0.9500202411        2.1507278342
 C          4.7521518304       -0.5010500022        1.0696428611
 C          4.1351103093       -1.1415070784        2.1643961030
 N          3.6888957822       -1.6938628395        3.0657207818
 C          1.8378947679       -0.4280441404       -1.1320700994
 C          0.4602921400       -0.4549006000       -1.1338306695
 H         -6.9667580846       -2.5772063390       -2.2943305940
 H         -7.2214663595       -4.3345543411       -2.1535538633
 H         -7.0501675232       -3.3451852045       -0.6826155894
 H         -2.8786761723       -4.1552897298       -1.8532868015
 H         -1.0651365584       -2.6562291291       -1.1056282937
 H         -5.8429122608       -1.3185619951       -0.6350269866
 H         -5.8846025064        1.1187444813        0.5138727373
 H         -4.8220594759        5.3078929766        1.4796738208
 H         -4.8064881360        4.5580522187        3.1027089167
 H         -6.3464070048        5.0647086951        2.3666256534
 H         -2.9471887001        3.9476907582        1.8074121447
 H         -1.1410738066        2.4719602158        1.1251582683
 H         -0.0971678435        0.5945874298        2.0336998145
 H          2.3491801850        0.6782942604        2.0237477371
 H          6.5585144062        2.1518085648       -2.4231309691
 H          6.8539441006        0.5249666100       -3.0208527697
 H          7.9716627851        1.2334610245       -1.8424009861
 H          6.8059845493       -2.0137083726        2.2967215773
 H          6.7397767927       -0.4433501128        3.0818849888
 H          8.0415908687       -0.7914517970        1.9226274715
 H          2.3758549408       -0.7371623658       -2.0156589394
 H         -0.0716876006       -0.7476047564       -2.0251002464
  57
  -92.7992960894000       4.393554535188528E-002 !
 C         -6.3223798583       -3.7627974910       -1.3189164964
 O         -4.9427989245       -3.8443005735       -1.5791794299
 C         -4.1524356130       -2.7868721216       -1.2290822814
 C         -2.7823689626       -2.9692249294       -1.4751013459
 C         -1.8547158145       -1.9975637019       -1.1749852576
 C         -2.3089417557       -0.8065906882       -0.6242941161
 C         -3.6792651269       -0.6209646098       -0.3502628835
 C         -4.6082365092       -1.6105477490       -0.6575376560
 C         -3.8000623212        0.6639899958        0.2784905905
 C         -4.8945756693        1.3794408838        0.7529039067
 C         -4.6733883530        2.6281603935        1.3097880298
 O         -5.6474326478        3.4351463662        1.8255644914
 C         -6.9742058781        2.9681265994        1.8178538421
 C         -3.3739766820        3.1576941840        1.3660805258
 C         -2.2830619488        2.4589868197        0.8987839286
 C         -2.4953691337        1.1923175704        0.3704761141
 N         -1.5980807753        0.3006537881       -0.1891920202
 C         -0.2085106662        0.3846215401       -0.1748641111
 C          0.4717906064        0.7392895369        0.9897243881
 C          1.8480920250        0.6846236818        1.0311838216
 C          2.5775428070        0.2900799313       -0.0897008167
 C          4.0262912397        0.0896814389       -0.0065542390
 C          4.9124659381        0.5775684557       -0.9773963547
 C          4.4609746533        1.3802390599       -2.0455617453
 N          4.1426430855        2.0490695399       -2.9220233564
 C          6.2867121214        0.2928227968       -0.8643128404
 C          7.2663429901        0.7835822927       -1.8751099369
 N          6.7659832941       -0.4243266079        0.1364160248
 C          5.9636339436       -0.8983123547        1.0730464349
 C          6.5853142807       -1.7121320810        2.1563003423
 C          4.5770718826       -0.6617155899        1.0429666582
 C          3.7627987732       -1.2459734929        2.0360091176
 N          3.1477075299       -1.7642790029        2.8546368672
 C          1.8987856025        0.0134929875       -1.2753483076
 C          0.5218747724        0.0585102807       -1.3177332890
 H         -6.7884363815       -2.9398700588       -1.8708589176
 H         -6.7421685637       -4.7077508001       -1.6596793678
 H         -6.5222111700       -3.6431793605       -0.2488355629
 H         -2.4730213620       -3.9091458203       -1.9032844871
 H         -0.8050261354       -2.1760716477       -1.3471493495
 H         -5.6504219926       -1.4481311417       -0.4357692726
 H         -5.8816828486        0.9539029793        0.6740040485
 H         -7.3359786766        2.8000453796        0.7979834128
 H         -7.5662011114        3.7540557316        2.2838144728
 H         -7.0784389197        2.0449310759        2.3977283063
 H         -3.2553284978        4.1423651692        1.7891635236
 H         -1.2968660858        2.8954507396        0.9357561385
 H         -0.0854690566        1.0111516961        1.8722659132
 H          2.3637101794        0.9469900768        1.9429382690
 H          7.2595872073        1.8724961966       -1.9127315451
 H          7.0027946664        0.4201360249       -2.8678934558
 H          8.2606954070        0.4350840196       -1.6115389692
 H          6.1637000386       -2.7171573729        2.1610022131
 H          6.3827814319       -1.2687444208        3.1306389561
 H          7.6579561690       -1.7688322123        1.9963681096
 H          2.4512026111       -0.2711242082       -2.1584424598
 H          0.0014445949       -0.1610543613       -2.2367173188
  57
  -92.7982320993000       1.425082566373270E-002 !
 C         -5.3332193913       -4.9560760702        1.7665437184
 O         -5.5929747423       -3.6528526891        1.3053282831
 C         -4.5388642929       -2.8343647704        1.0146200455
 C         -3.1964607114       -3.1948539495        1.1600550726
 C         -2.1760387781       -2.3170030021        0.8364977970
 C         -2.5071558456       -1.0648768551        0.3487178509
 C         -3.8619401748       -0.6786257873        0.2327825125
 C         -4.8743691240       -1.5626693584        0.5596367570
 C         -3.8619303597        0.6835011652       -0.2272202268
 C         -4.8744989523        1.5725855653       -0.5397702229
 C         -4.5390943968        2.8431237306       -0.9980877956
 O         -5.5930126656        3.6671884052       -1.2736224309
 C         -5.3332568312        4.9630775168       -1.7546479130
 C         -3.1970575559        3.1974910095       -1.1609952566
 C         -2.1765821391        2.3143780284       -0.8523799318
 C         -2.5070549427        1.0633411475       -0.3613568567
 N         -1.6925506804       -0.0027215373       -0.0121885425
 C         -0.3021343545       -0.0026639271       -0.0138168188
 C          0.4050735999        1.0691685015        0.5325016750
 C          1.7828091483        1.0667002838        0.5344297531
 C          2.4919935958       -0.0026107716       -0.0116340268
 C          3.9563587817       -0.0030182230       -0.0051438436
 C          4.6820590524        0.3317556848        1.1483445033
 C          4.0352919333        0.6275403230        2.3665107466
 N          3.5603794355        0.8541460348        3.3864535911
 C          6.0888540575        0.3212705324        1.1098304929
 C          6.8991699125        0.6708428062        2.3113622092
 N          6.7491204491        0.0000406731        0.0114296381
 C          6.1025525665       -0.3231325940       -1.0944764273
 C          6.9284611476       -0.6696936561       -2.2861820981
 C          4.6961700405       -0.3371515276       -1.1497077089
 C          4.0644999074       -0.6366937954       -2.3748211139
 N          3.6022763396       -0.8669320349       -3.3999307030
 C          1.7839256573       -1.0710177877       -0.5605421401
 C          0.4058871262       -1.0736117945       -0.5606265414
 H         -4.7684320812       -5.5390767258        1.0315379658
 H         -4.7922187280       -4.9474655704        2.7185544827
 H         -6.3099389180       -5.4142007828        1.9137060086
 H         -2.9308910865       -4.1697384477        1.5364547355
 H         -1.1484729306       -2.6123424557        0.9828297828
 H         -5.9128513828       -1.2884812295        0.4755505288
 H         -5.9130654494        1.3029484935       -0.4426965161
 H         -4.7610200584        5.5546632041       -1.0322235128
 H         -6.3097794581        5.4220113760       -1.9003594842
 H         -4.7996031363        4.9397551969       -2.7105515649
 H         -2.9318074260        4.1718663756       -1.5388781273
 H         -1.1496898083        2.6052098674       -1.0117956002
 H         -0.1333046496        1.8913366613        0.9767287596
 H          2.3152500250        1.9092212434        0.9498428018
 H          6.6948501026        1.6956197470        2.6206376990
 H          7.9546471978        0.5669655062        2.0776423110
 H          6.6419760348        0.0199812922        3.1463367139
 H          6.7149854599       -1.6867667616       -2.6132645412
 H          7.9810297964       -0.5830486597       -2.0332363922
 H          6.6953904870       -0.0037944950       -3.1162774149
 H          2.3171874632       -1.9124258112       -0.9773359975
 H         -0.1316098003       -1.8956858241       -1.0062238146
