  77
       -126.11820553
 N         -7.4822321531        2.9535534251        1.4682358054
 C         -6.3703886102        2.8887712445        1.1591193220
 C         -5.0272981060        2.8063813804        0.7909051597
 C         -4.5494791144        3.4878995705       -0.3480274376
 C         -3.2317588778        3.3968796558       -0.7105385637
 C         -2.3337458588        2.6268130680        0.0474041871
 N         -0.9978619247        2.4943269835       -0.3430279755
 C         -0.2987337488        3.5954021003       -0.8474894377
 C          0.6530077488        3.4295502965       -1.8538669200
 C          1.3486098709        4.5183741239       -2.3407822577
 C          1.0988249553        5.7877480703       -1.8448320045
 C          0.1453677696        5.9599764438       -0.8541745047
 C         -0.5473340838        4.8754037790       -0.3527709983
 C         -0.3768982130        1.2623546726       -0.2189341104
 C          0.9759901280        1.1686472958        0.1578342486
 C          1.5670314354       -0.0661902954        0.3090779349
 N          2.9403758980       -0.1435917791        0.6582169589
 C          3.9045710341        0.2113693378       -0.2629824804
 C          3.5955041121        0.5975503931       -1.5686705166
 C          4.5891059380        0.9536442606       -2.4522906590
 C          5.9330929993        0.9289019729       -2.0569480004
 C          6.2661278148        0.5276528019       -0.7801666857
 C          5.2754104603        0.1613968395        0.1210712686
 O          5.6561786529       -0.2487630675        1.3585499567
 C          4.6961911643       -0.6096924655        2.2485613197
 C          5.0986333974       -1.0234464933        3.5118240421
 C          4.1614724954       -1.3793083633        4.4589034508
 C          2.7966956039       -1.3102245074        4.1519073747
 C          2.3814135436       -0.9010743860        2.9039166827
 C          3.3112051211       -0.5579197327        1.9208326245
 C          0.8499936344       -1.2494404570        0.1139776389
 C         -0.4944690894       -1.1517576339       -0.2704087715
 N         -1.2328300781       -2.3377641874       -0.4989994519
 C         -2.3167324163       -2.6631881091        0.3074642643
 C         -2.6940143476       -1.8854047927        1.3984238564
 C         -3.7850046193       -2.2348671897        2.1724529101
 C         -4.5172046820       -3.3745304521        1.8796792256
 C         -4.1403147755       -4.1769406165        0.8164299651
 C         -3.0474917656       -3.8345862331        0.0377895361
 O         -2.7128465083       -4.6825859387       -0.9811239882
 C         -1.6481251838       -4.3463552525       -1.7689154440
 C         -1.3330468471       -5.2037898690       -2.8101034928
 C         -0.2810350845       -4.9094397944       -3.6607932644
 C          0.4450005761       -3.7439247985       -3.4772505580
 C          0.1363128581       -2.8815833965       -2.4401249960
 C         -0.8992665898       -3.1744860075       -1.5565596418
 C         -1.0972091655        0.0757308116       -0.4383638355
 C         -2.8058309243        1.9604366781        1.1911991260
 C         -4.1219790390        2.0437085523        1.5576026027
 H         -5.2396723619        4.0762114937       -0.9345319785
 H         -2.8718858364        3.9112156134       -1.5896553822
 H          0.8324012351        2.4443171290       -2.2579217525
 H          2.0834513792        4.3755233768       -3.1190702283
 H          1.6410406517        6.6373802776       -2.2300831980
 H         -0.0553712176        6.9458391098       -0.4621903557
 H         -1.2820229806        5.0077444683        0.4273612200
 H          1.5500898619        2.0663109892        0.3280325746
 H          2.5625847690        0.6106169183       -1.8791512522
 H          4.3299684630        1.2509026063       -3.4559813444
 H          6.7054662177        1.2149140393       -2.7519748972
 H          7.2926738959        0.4845902833       -0.4525636949
 H          6.1553798918       -1.0530877846        3.7247305997
 H          4.4785901456       -1.7014123876        5.4373179785
 H          2.0643041875       -1.5747568874        4.8977558620
 H          1.3289841285       -0.8403617116        2.6746697626
 H          1.3204389211       -2.2097042584        0.2464326436
 H         -2.1257926955       -1.0019712673        1.6369427102
 H         -4.0621039704       -1.6114662559        3.0079959028
 H         -5.3726443181       -3.6429455073        2.4783224021
 H         -4.6789744913       -5.0782685860        0.5717916670
 H         -1.9292177065       -6.0930910747       -2.9366369916
 H         -0.0392430903       -5.5826322127       -4.4674842221
 H          1.2555106635       -3.4974657933       -4.1451773259
 H          0.6988003458       -1.9703917311       -2.3132842311
 H         -2.1298665608        0.1308137074       -0.7465064412
 H         -2.1083840303        1.3968734670        1.7935844301
 H         -4.4798998690        1.5371527721        2.4417040881
