93
 energy: -145.025815161081 gnorm: 0.000041915469 xtb: 6.7.1 (edcfbbe)
C           -7.95778036827822       -5.00644931777178       -0.41978000141584
C           -6.81227508026087       -5.11517747035235       -1.19155989969793
C           -5.81884170786412       -4.16043105013206       -1.09743095149267
C           -5.95929357226210       -3.07671937545601       -0.23135525639207
C           -4.88958584204418       -2.09346625187454       -0.15703254339623
N           -3.60638495506596       -2.44556486242994       -0.45984354468951
C           -2.86587327438921       -1.38621502984405       -0.27519442535104
C           -1.41973100814977       -1.31665575113416       -0.44820307003174
C           -0.62921640273018       -2.25202294884231        0.17829103035827
C            0.76054744832164       -2.12527349148008        0.17565897865646
C            1.37898311901108       -1.05319613754001       -0.42736738637813
C            2.83350747084095       -0.89074670769219       -0.28519051023586
C            3.38124963113639        0.29761698972772        0.19588839295789
C            4.74349051245548        0.43566511825183        0.35804765487191
C            5.60495540459912       -0.61269152206573        0.03208992334007
N            6.98732629939767       -0.46962897947170        0.18121462970476
C            7.59884282487949        0.75546145604752       -0.10679285542347
C            8.67352077945699        1.20767853298895        0.65875587729458
C            9.27801987513840        2.41445611931158        0.36567470819477
C            8.81941981224284        3.19334475129603       -0.68412247876630
C            7.74906194579748        2.75152605405959       -1.44437817144690
C            7.14356991347831        1.54205188551199       -1.16496896817326
C            7.75990369185438       -1.55429271149290        0.61240470796089
C            9.03361742530855       -1.76993013677944        0.08693030274440
C            9.79326148719956       -2.83896533050813        0.52035271199215
C            9.29657921328839       -3.71295232717852        1.47347881937757
C            8.03006470602939       -3.50605387160846        1.99505423702747
C            7.26609884968032       -2.43498445957768        1.57460187575758
C            5.06021909824998       -1.80642900159053       -0.44223117202686
C            3.69566329945002       -1.94228033719417       -0.58749750069935
C            0.59713440569820       -0.12696528094883       -1.17215316890770
C            1.18114785719184        0.91039946275706       -1.92982423855198
C            0.41350085783868        1.75977089363034       -2.67648757278356
C           -0.97513172282666        1.58548039780561       -2.73868124860741
C           -1.57100853592965        0.57907476542587       -2.03270426432648
C           -0.81458884794530       -0.27869689951527       -1.20767235328976
N           -3.61953401987390       -0.32336769890662        0.15911191963565
C           -3.13967372336979        0.96532747525238        0.44555904303255
C           -2.03767529715897        1.12384165753038        1.28015111532397
C           -1.51619716809941        2.38218672991203        1.49515273788148
C           -2.09454871162419        3.49777071619275        0.90382014560567
C           -3.23817316080518        3.34380637554810        0.11279160001834
C           -3.74488191678926        2.07551440313086       -0.12559517784417
O           -3.88119868012802        4.41105929646702       -0.45415577612591
C           -3.48529692034352        5.65332475022465        0.08409027003311
C           -1.96390717295314        5.70998123636744        0.21181862003078
O           -1.51608205627765        4.72248251515301        1.11348078914486
C           -4.92390151131457       -0.76272661169824        0.22576389635539
C           -6.02384254153043        0.10135770583652        0.63110469434023
C           -5.92476441037521        0.89691391473406        1.77127583875895
C           -6.97141466527997        1.72155719635104        2.13865000392062
C           -8.12691837541980        1.76480947937062        1.37680538356811
C           -8.23446666493385        0.97378981389027        0.24413130469938
C           -7.19167088207908        0.14846335687097       -0.12939752938481
C           -7.10488714586186       -2.98523590587373        0.55692021965236
C           -8.09622202526726       -3.94304051229613        0.45717004638259
H           -8.73674466626013       -5.75127737851023       -0.49516816151597
H           -6.69531390957266       -5.94875371294142       -1.86925053477946
H           -4.91832600923969       -4.23377087489980       -1.68729181364334
H           -1.09863017672797       -3.06527571199977        0.71068301177531
H            1.35753961691357       -2.85013017740647        0.71016004850995
H            2.72529264761891        1.11063291160829        0.47228858588666
H            5.15261104709725        1.35770900146290        0.74468123759641
H            9.02724424170529        0.60727272823916        1.48414777565152
H           10.10867962168079        2.75296167192753        0.96746322415660
H            9.29289118263384        4.13711261501031       -0.90831360440415
H            7.38799628396923        3.34910427605750       -2.26865204485495
H            6.31690228932538        1.19454644129933       -1.76732625054843
H            9.41948910221376       -1.09584435173911       -0.66384257173832
H           10.77748561267114       -2.99541355878377        0.10376714541162
H            9.89208639168941       -4.54906089684805        1.80720094923875
H            7.63639223791194       -4.17919602763526        2.74248459162944
H            6.28290446042440       -2.26981790017411        1.99050047126939
H            5.71723787190459       -2.62384622328587       -0.70084465236631
H            3.28834228800077       -2.86717832895053       -0.96895399013409
H            2.25598335264662        1.01184768652040       -1.93362691721103
H            0.87790320200313        2.54983170867887       -3.24874628998781
H           -1.56874702268413        2.23452526761066       -3.36570100621179
H           -2.63206878296268        0.40859458798634       -2.13213219185906
H           -1.58386332113476        0.26187387571416        1.74328551912896
H           -0.64935829574088        2.52618628962286        2.11926761707076
H           -4.60953007037397        1.97777139623265       -0.76218020466533
H           -3.85675397146337        6.41918357493700       -0.59803927235519
H           -3.93661320156841        5.79179280699985        1.07611122984422
H           -1.51212952379904        5.54586982021926       -0.77620271448005
H           -1.63366527622749        6.66912923613822        0.61279617498138
H           -5.03003410176163        0.85769432984580        2.37615424143556
H           -6.88552222418263        2.33106229334640        3.02657674227181
H           -8.94255246303654        2.41102755952474        1.66571674035263
H           -9.13411793228586        1.00385178526606       -0.35291919166498
H           -7.27071360719853       -0.46726681770566       -1.01345490943499
H           -7.21265144791656       -2.17034512206932        1.25729889400595
H           -8.98124356352320       -3.86218310788321        1.07215946697143
