93
 energy: -145.025449489139 gnorm: 0.000047092777 xtb: 6.7.1 (edcfbbe)
C           -8.19775160007051       -4.60346335131256       -0.22428741334622
C           -8.49473563219481       -3.28152768553826       -0.51285291457736
C           -7.51829964020955       -2.30816309645558       -0.41646312366433
C           -6.22656300331186       -2.64764568145878       -0.01870762796432
C           -5.16527423259430       -1.65858192399652        0.09069406640109
N           -3.86345189083175       -2.02843997190123       -0.06202809253761
C           -3.13550673483738       -0.94559452331523        0.03795673007438
C           -1.68134445719352       -0.88932884459378       -0.00785811844531
C           -1.00134284426121       -0.09035517767323        0.88577950823127
C            0.39079240197336       -0.01280381597778        0.86686520812308
C            1.13437920397712       -0.73481197105560       -0.03698370673477
C            2.60334518213366       -0.65019929409589        0.01582735094770
C            3.24036154323369        0.58412759923091       -0.07982326368720
C            4.61443992395650        0.68154393470702       -0.00626473975109
C            5.39390185531121       -0.46096159373977        0.17425976373998
N            6.78786727788760       -0.36721098086537        0.24729219350529
C            7.47026734499714        0.53871989837393       -0.57144115336935
C            8.59576605964267        1.21335493548711       -0.09829128027471
C            9.26923927089642        2.10142332354272       -0.91398471230809
C            8.83088981265279        2.33964085259403       -2.20634989370229
C            7.71015689469256        1.67695710623139       -2.67934291771060
C            7.03477416000353        0.78059643528600       -1.87445644775595
C            7.49602867130177       -1.18141015862269        1.13825196961311
C            8.74051311330888       -1.70319544490192        0.78573035852460
C            9.43717633386788       -2.50084638977278        1.67234937385847
C            8.90537939642474       -2.79919460863255        2.91621752638552
C            7.66695600170890       -2.28856763723425        3.26898172041599
C            6.96631947673041       -1.48290215770507        2.39288196749946
C            4.75876696343880       -1.69831653074306        0.28439477919474
C            3.38471501994452       -1.78798935482621        0.20638898880189
C            0.46915787399776       -1.55786590368701       -0.98547584852427
C            1.17745498154459       -2.26380364452944       -1.98204989721729
C            0.52621016341623       -3.05726794530667       -2.88384537173551
C           -0.86915343764770       -3.17783405194763       -2.83611157014313
C           -1.58916079324588       -2.48377503502712       -1.90451536107877
C           -0.94915736377527       -1.65280023126432       -0.96146334886224
N           -3.92768947756270        0.15488508191906        0.25772247293346
C           -3.50828836578286        1.48879090932582        0.39526512352567
C           -3.92379295343036        2.24769242352826        1.48541683371751
C           -3.48347369277806        3.54792319166042        1.62151797903649
C           -2.63006222326739        4.10886144691697        0.67997482822687
C           -2.24307597430146        3.35714845506241       -0.43560326791313
C           -2.68192207764328        2.04836519259717       -0.56917595212355
O           -1.44506129251812        3.87404165632153       -1.42035917364644
C           -1.32769091099022        5.27902464094908       -1.36671852087091
C           -1.08426540008761        5.73242504614104        0.07164844587696
O           -2.18686104135153        5.39001553009134        0.88164769148749
C           -5.23063147842635       -0.29128708056214        0.30138833137359
C           -6.36216642837219        0.59620869599666        0.53321123317329
C           -7.31775950853626        0.26812634905048        1.49437767585103
C           -8.39073429842524        1.10667575000988        1.72600384847099
C           -8.52427806047268        2.28352091607523        1.00658907967168
C           -7.58121605098612        2.61461513415959        0.04827927411960
C           -6.50606196751701        1.77903174652742       -0.18962240416000
C           -5.93073268193122       -3.98341986584762        0.25119814625550
C           -6.91033638862302       -4.95171201194231        0.15119462562754
H           -8.96543077315449       -5.35989386009978       -0.29956568588839
H           -9.49371299443213       -3.00740288374543       -0.82084000494321
H           -7.75426027638778       -1.28361793883002       -0.66279127745166
H           -1.54284407840946        0.46783549653006        1.63562165241355
H            0.89415432055207        0.60594950200421        1.59615129472360
H            2.64658467387551        1.47544454798318       -0.22319359988295
H            5.09605754669502        1.64542913652958       -0.08469058241479
H            8.93450737269591        1.03728313902779        0.91224134281563
H           10.13865269156410        2.61777919260448       -0.53410174466733
H            9.35874772730804        3.03614319366086       -2.83993149997040
H            7.36357568033461        1.85192218655886       -3.68738977987699
H            6.16735259247174        0.25772188222610       -2.25007721449981
H            9.15330993866308       -1.48077130464774       -0.18744548112593
H           10.39925917978179       -2.89963975215549        1.38577642462243
H            9.45175210327920       -3.42519801657013        3.60520028896722
H            7.24596205931591       -2.51190156888626        4.23834601288105
H            6.00514819907594       -1.07824699898265        2.67456200073978
H            5.35275728255228       -2.58887237987240        0.42923752661345
H            2.90460989564044       -2.75086615110519        0.30407957965254
H            2.25103097545138       -2.15821351899387       -2.03055364853887
H            1.08355351767809       -3.59064015724786       -3.64035341617261
H           -1.37392384632642       -3.81341777301877       -3.54878724022112
H           -2.66282890194998       -2.57352111896165       -1.86507709877220
H           -4.57538603872368        1.81432717495247        2.22766278649035
H           -3.78061477889599        4.15036231708402        2.46438484207781
H           -2.36665736262690        1.48035838606463       -1.42994275127144
H           -0.49181300180661        5.54474439460701       -2.01509306915125
H           -2.24893372027040        5.74599891238185       -1.74128078279420
H           -0.17467133605531        5.24862829127111        0.45346531172744
H           -0.97790178818353        6.81614329169089        0.13473238198584
H           -7.20875358620813       -0.64897634743972        2.05470816385197
H           -9.12473263938895        0.84347190339455        2.47344390588113
H           -9.36267594164779        2.93880626431183        1.19062766123144
H           -7.68475867213595        3.52755052195009       -0.51985098395851
H           -5.78059968263525        2.03534033839128       -0.94831248490188
H           -4.92214852793277       -4.23920674837785        0.53706999113155
H           -6.67138583363662       -5.98329484150536        0.36673720620768
