93
 energy: -144.952538938248 gnorm: 0.000069905629 xtb: 6.7.1 (edcfbbe)
C           -7.57498791008304       -5.21107250680776        0.10948566107241
C           -6.62122621689153       -5.23371397559149       -0.89561261436918
C           -5.68434975793557       -4.22323125783257       -0.98511627771497
C           -5.69285905419030       -3.16832089010064       -0.07261294558737
C           -4.68430659479692       -2.12718608014735       -0.19609789065620
N           -3.47619764467417       -2.39941069469187       -0.71257551201130
C           -2.76653705730356       -1.27032131504358       -0.68934249878331
C           -1.44395436533192       -1.16753819890792       -1.15677804688990
C           -0.63381226183342       -2.35076086206936       -1.14145675342285
C            0.71572879145008       -2.25736177949979       -1.16848205797422
C            1.37728670621055       -0.98550437866428       -1.21399638211803
C            2.75304750296496       -0.87490432750831       -0.85417466567079
C            3.25117873412982        0.28189824925541       -0.20934990143724
C            4.56258459199355        0.38860578807518        0.16941944807858
C            5.46790616199500       -0.65410433149538       -0.07707057844876
N            6.80501905106446       -0.54140538232073        0.29573141051169
C            7.45325316062275        0.69480465699623        0.21505960244197
C            8.39129835162603        1.06632750269961        1.17935653778234
C            9.03059477724779        2.28715882229197        1.09270177920650
C            8.74366230651110        3.15817851669263        0.05381922941927
C            7.81030813365204        2.79566802234239       -0.90414166196227
C            7.16998982849065        1.57456659640109       -0.83068861999980
C            7.50161066854127       -1.66507222203638        0.75277394761323
C            8.84200729977768       -1.85290759279667        0.41319420937096
C            9.52470525709917       -2.96348538258562        0.86855765566476
C            8.88617354166265       -3.90455661884991        1.66032698411932
C            7.55428708968803       -3.72413402086384        1.99762669140000
C            6.86393130542331       -2.61410107334170        1.55279601395239
C            4.98965804988915       -1.81604299271423       -0.69831535922692
C            3.67391416710886       -1.92685373020681       -1.06354341011971
C            0.58656147404027        0.14829949287435       -1.62327446242305
C            1.16904695589741        1.31198202832497       -2.13545625170868
C            0.39461343394469        2.35620650823480       -2.61844619020470
C           -0.97975748702799        2.23011602916796       -2.67139034436978
C           -1.58014860738735        1.06786388045999       -2.21076099019300
C           -0.82782564895257        0.04501435207871       -1.63555977280425
N           -3.51740927609842       -0.25004170599234       -0.10709888918960
C           -3.05605965226056        1.03155840976471        0.22687113673258
C           -1.85286368826735        1.17389340729662        0.91354404672169
C           -1.35978991370038        2.43275153492227        1.18019832314445
C           -2.06260604331281        3.56468815229510        0.78717448271505
C           -3.30161406335594        3.42182743454106        0.15381245395638
C           -3.78600170305934        2.15540668483106       -0.13540435820869
O           -4.06345736009946        4.50037668587890       -0.21027039058254
C           -3.63936339436319        5.70979633225849        0.37810121224136
C           -2.11860347045339        5.83082496242781        0.29342525393176
O           -1.50974726615672        4.79552689698534        1.03158043178476
C           -4.74741866555574       -0.78143081731096        0.19627779921800
C           -5.82891051186585       -0.02648855765586        0.79851840704442
C           -5.61135177645632        0.79634737018853        1.90588443687911
C           -6.65713245799753        1.50672801086992        2.46223120747630
C           -7.93150432942979        1.41270085870433        1.92682649211598
C           -8.15814189716617        0.59339541240410        0.83156852719481
C           -7.11930537803909       -0.12157538663870        0.27055865488671
C           -6.64208087793749       -3.16343124125457        0.94831395607218
C           -7.57642128647861       -4.17817933201482        1.03286420521066
H           -8.31008413414267       -5.99969065888842        0.17845499811199
H           -6.61018691708357       -6.04338398309096       -1.61097626909937
H           -4.93186562295551       -4.22760540243406       -1.75835421590259
H           -1.13849601344450       -3.29435804927052       -1.01019195528391
H            1.31305487830376       -3.14841637206535       -1.05425887794477
H            2.56182113129066        1.07302880571576        0.04519662728045
H            4.90731049137538        1.27218993699553        0.68758819378918
H            8.60766379038523        0.39389752448119        1.99659777654979
H            9.75250948130415        2.56412808919040        1.84674997536455
H            9.24414470917384        4.11237520252483       -0.00886114878700
H            7.58537857516459        3.46588587573481       -1.72063238339216
H            6.45276215533174        1.28736743770167       -1.58541000008872
H            9.33790584209436       -1.12628429251501       -0.21370059253784
H           10.56092384671274       -3.09951404486800        0.59619145191922
H            9.42285136267914       -4.77240035038849        2.01202927461500
H            7.05082709703707       -4.44964284463804        2.61932691425162
H            5.82934979581684       -2.46780107231308        1.82625702246176
H            5.67889859632983       -2.62173011752609       -0.90741644740423
H            3.35089906159699       -2.81821081816461       -1.57862336467970
H            2.24454677206979        1.38666320279150       -2.19124462989329
H            0.87524463944558        3.25174907085495       -2.98526443113635
H           -1.58915835841023        3.01883915852826       -3.08783074028501
H           -2.64636188246884        0.94296545166317       -2.32208156376042
H           -1.30171136406430        0.29780478473611        1.21761809992096
H           -0.41893859128701        2.56637269955985        1.68862169262222
H           -4.72791953125458        2.06941249836685       -0.65309924701952
H           -4.13470997457913        6.51204900630857       -0.17056919517184
H           -3.94535572955925        5.74020391798587        1.43295712094210
H           -1.80959031301811        5.77089380291235       -0.75924751282161
H           -1.76925627010187        6.76890504967190        0.72680453187177
H           -4.62454954664947        0.85960325754295        2.34094267391926
H           -6.47733877727879        2.13518928898335        3.32240181471816
H           -8.74551423030972        1.97238937134895        2.36287054355955
H           -9.14994417704349        0.51555270595928        0.41088368051141
H           -7.29281826699309       -0.75534217571488       -0.58675131481790
H           -6.63735989789636       -2.37396381666377        1.68497893988359
H           -8.30801616734984       -4.16588223420698        1.82802770959714
