  93
       -145.02571446
 C         -7.9676946464       -5.0037638355       -0.3944930061
 C         -6.8188125232       -5.1287551113       -1.1587305089
 C         -5.8244131177       -4.1737038413       -1.0784867740
 C         -5.9670167693       -3.0735295954       -0.2337796703
 C         -4.8944447555       -2.0928849534       -0.1685548623
 N         -3.6115335980       -2.4522748611       -0.4644695107
 C         -2.8673113024       -1.3950069418       -0.2831085307
 C         -1.4206937448       -1.3301558764       -0.4528869599
 C         -0.6331645513       -2.2664194996        0.1760256790
 C          0.7568645764       -2.1416007297        0.1769087365
 C          1.3782790790       -1.0709985828       -0.4255438487
 C          2.8323840803       -0.9080549361       -0.2799756405
 C          3.3773374661        0.2829366231        0.1977926360
 C          4.7393319225        0.4252094350        0.3574828573
 C          5.6032429330       -0.6214807790        0.0327618510
 N          6.9856738041       -0.4702690615        0.1745180137
 C          7.5852130382        0.7582517157       -0.1250258324
 C          8.6521463832        1.2316870903        0.6382324662
 C          9.2413776761        2.4434603396        0.3343883594
 C          8.7753165162        3.2055642042       -0.7243637299
 C          7.7132463638        2.7418578909       -1.4832953255
 C          7.1228810163        1.5275844782       -1.1928185311
 C          7.7673092822       -1.5439578751        0.6152755320
 C          9.0451626154       -1.7495170124        0.0955895585
 C          9.8148091539       -2.8072574624        0.5389416956
 C          9.3243570240       -3.6800931627        1.4963435196
 C          8.0537337533       -3.4835103822        2.0118756707
 C          7.2796288902       -2.4237127792        1.5815035466
 C          5.0612668090       -1.8191186636       -0.4346268073
 C          3.6967592880       -1.9589535504       -0.5780175043
 C          0.5997056529       -0.1446559604       -1.1738126282
 C          1.1871125020        0.8904509419       -1.9319468256
 C          0.4225876393        1.7399368672       -2.6817007359
 C         -0.9661898926        1.5681961440       -2.7464067726
 C         -1.5653804058        0.5641886051       -2.0397691307
 C         -0.8121628713       -0.2938925005       -1.2121389415
 N         -3.6180518727       -0.3261844431        0.1416441042
 C         -3.1321083306        0.9573245577        0.4409489170
 C         -2.0378160191        1.1011799018        1.2883678372
 C         -1.5153342109        2.3548284778        1.5266578006
 C         -2.0858035832        3.4803818482        0.9467696855
 C         -3.2201460754        3.3404246520        0.1400414829
 C         -3.7269081667        2.0767976360       -0.1227110216
 O         -3.8552471078        4.4174664983       -0.4171496428
 C         -3.4653459196        5.6504165708        0.1464485341
 C         -1.9456194641        5.7039776699        0.2941397895
 O         -1.5091700280        4.7010429190        1.1839806991
 C         -4.9245984367       -0.7595331605        0.2054163080
 C         -6.0241199087        0.1122327198        0.5955599341
 C         -5.9343953098        0.9123666237        1.7332324264
 C         -6.9811307495        1.7441245317        2.0842655540
 C         -8.1272086986        1.7898255176        1.3086770051
 C         -8.2254741207        0.9941036859        0.1783933795
 C         -7.1824664565        0.1619736217       -0.1790877438
 C         -7.1164941095       -2.9652007249        0.5467762043
 C         -8.1088988855       -3.9231506526        0.4607066013
 H         -8.7471386352       -5.7491146261       -0.4588297034
 H         -6.6997538808       -5.9756754436       -1.8192545414
 H         -4.9210487560       -4.2600782890       -1.6616949793
 H         -1.1051205984       -3.0783634741        0.7081603322
 H          1.3514297563       -2.8665919606        0.7139254289
 H          2.7194671718        1.0948656217        0.4727777500
 H          5.1466373242        1.3496798251        0.7402371740
 H          9.0113226236        0.6443399440        1.4706266084
 H         10.0652860051        2.7995028923        0.9353233393
 H          9.2361866378        4.1537299115       -0.9562487142
 H          7.3465631942        3.3262749113       -2.3144924040
 H          6.3021507419        1.1629501397       -1.7932044491
 H          9.4264133701       -1.0764627284       -0.6584545289
 H         10.8021493283       -2.9558303871        0.1268121266
 H          9.9277578295       -4.5073397534        1.8379636840
 H          7.6646814529       -4.1558733281        2.7624338854
 H          6.2933334232       -2.2664373317        1.9930962518
 H          5.7203542213       -2.6356068790       -0.6910162654
 H          3.2914655446       -2.8857656639       -0.9572196966
 H          2.2620931394        0.9902758857       -1.9336674681
 H          0.8896520155        2.5283050655       -3.2541836024
 H         -1.5572297993        2.2173380263       -3.3757068293
 H         -2.6265771622        0.3956036036       -2.1411790878
 H         -1.5916787528        0.2316058533        1.7445988012
 H         -0.6550697158        2.4876681337        2.1622265474
 H         -4.5848178981        1.9906132220       -0.7699414469
 H         -3.8277786810        6.4276710268       -0.5276033447
 H         -3.9290508165        5.7728330385        1.1348409020
 H         -1.4816864489        5.5569482152       -0.6909387344
 H         -1.6202640620        6.6560152204        0.7156346826
 H         -5.0468324951        0.8717783657        2.3486882948
 H         -6.9018670852        2.3580167738        2.9697366626
 H         -8.9422291477        2.4421566164        1.5845728898
 H         -9.1181249096        1.0253224167       -0.4290702602
 H         -7.2552386911       -0.4593920533       -1.0601323855
 H         -7.2262948232       -2.1373195966        1.2315128702
 H         -8.9966205799       -3.8289643579        1.0696712771
