  62
  -111.714518204300       0.194788545807430      !
 F         -5.4668861985       -2.9021173603       -0.4084682990
 C         -4.3119331187       -2.5246445097        0.1270301321
 N         -3.8264116248       -3.2929813938        1.0727509304
 C         -2.6941936056       -2.9340744604        1.6313413436
 F         -2.2347276785       -3.7199298990        2.5988937403
 C         -1.9831504071       -1.7969049631        1.2609676185
 F         -0.8534072547       -1.5064921611        1.9186418471
 C         -2.4614509235       -0.9750902564        0.2336828296
 C         -1.7442915753        0.2915752300       -0.1630025244
 C         -0.2328744549        0.1405323750       -0.1219733674
 C          0.3498278063       -1.0192946048       -0.6441522896
 C          1.7169895457       -1.1991604304       -0.6729961347
 C          2.5170849522       -0.1866903014       -0.1638149154
 C          1.9430295159        1.0077503966        0.3280729280
 C          0.5653638649        1.1679035713        0.3466588742
 C          3.0346138086        1.8494589711        0.7277749010
 C          3.1071529661        3.1154170149        1.2943566135
 C          4.3507768606        3.6371964950        1.5873486062
 C          5.5113505504        2.9077620377        1.3364593326
 C          5.4647122934        1.6471201082        0.7734221829
 C          4.2185450247        1.1265396097        0.4544552683
 N          3.8898730063       -0.1013664218       -0.0854295616
 C          4.7981332621       -1.0970949397       -0.4757269521
 C          5.8601947292       -0.7818709865       -1.3178812713
 C          6.7571758295       -1.7644882153       -1.6940456043
 C          6.5976204848       -3.0649366827       -1.2451143704
 C          5.5373192127       -3.3809356245       -0.4119317740
 C          4.6411518650       -2.4031246514       -0.0215639059
 C         -2.1138683864        0.8191510583       -1.5398136472
 C         -1.8679547252        0.2553957298       -2.7727024034
 C         -2.2701582449        0.9440151729       -3.9089225630
 C         -2.8977480430        2.1756999055       -3.8099264765
 C         -3.1369618996        2.7514658473       -2.5732057120
 C         -2.7407368778        2.0680039129       -1.4362780709
 C         -2.8593003203        2.4151830332       -0.0299600440
 C         -3.4179045000        3.5220621984        0.5876852247
 C         -3.3927972818        3.5952199442        1.9710265820
 C         -2.8171291955        2.5848132671        2.7256720111
 C         -2.2558631727        1.4710524197        2.1142361480
 C         -2.2792351668        1.3966170218        0.7382519057
 C         -3.6836750120       -1.3644357234       -0.3212356546
 F         -4.2872628476       -0.6406268678       -1.2707895873
 H         -0.2856171810       -1.8067742493       -1.0252976138
 H          2.1445922746       -2.0994550341       -1.0869988204
 H          0.1299130403        2.0795492433        0.7254227101
 H          2.2062212713        3.6723112225        1.5033373311
 H          4.4308226081        4.6203607747        2.0264456588
 H          6.4693637978        3.3359602399        1.5918925280
 H          6.3684340392        1.0826855815        0.6001089813
 H          5.9683172053        0.2286906944       -1.6826459150
 H          7.5802519853       -1.5145681145       -2.3469686404
 H          7.2980569632       -3.8301261482       -1.5435418027
 H          5.4116168688       -4.3928899590       -0.0565971523
 H          3.8262435512       -2.6402339063        0.6459074560
 H         -1.3787802172       -0.7028536828       -2.8629477358
 H         -2.0922441756        0.5114514129       -4.8820935304
 H         -3.2032728821        2.6915046110       -4.7082008384
 H         -3.6236962119        3.7119174802       -2.4969822697
 H         -3.8656372757        4.3103152819        0.0019093900
 H         -3.8263812564        4.4500172130        2.4687834458
 H         -2.8038870032        2.6617298685        3.8024263733
 H         -1.7992310407        0.6963637122        2.7109704759
  62
  -111.714382265300       0.168690325604223      !
 F         -5.4873328226       -2.9026088275       -0.3464649182
 C         -4.3345278856       -2.5214710421        0.1912527272
 N         -3.8642412013       -3.2708954093        1.1595417937
 C         -2.7343177348       -2.9084839454        1.7205901918
 F         -2.2915835550       -3.6749462772        2.7110221212
 C         -2.0103933472       -1.7859605941        1.3306738308
 F         -0.8845742859       -1.4876939675        1.9909978817
 C         -2.4731527935       -0.9845052538        0.2806311486
 C         -1.7448885463        0.2691780850       -0.1352727009
 C         -0.2340796844        0.1155805341       -0.0835131281
 C          0.3493748058       -1.0563794051       -0.5770506964
 C          1.7174097267       -1.2258368609       -0.6252657245
 C          2.5182251781       -0.1833547190       -0.1819132271
 C          1.9416775029        1.0004585385        0.3320055453
 C          0.5632872608        1.1498918094        0.3709239314
 C          3.0314694502        1.8413849497        0.7379609560
 C          3.1020328755        3.1133741988        1.2910907162
 C          4.3459565696        3.6550891571        1.5437150123
 C          5.5095359922        2.9514344236        1.2387937906
 C          5.4647511901        1.6844671777        0.6898712352
 C          4.2169128844        1.1246315114        0.4552853143
 N          3.8907591821       -0.0970583636       -0.1003332198
 C          4.8030837556       -1.0758220246       -0.5224647899
 C          5.8131666762       -1.5055822693        0.3327940330
 C          6.7166319188       -2.4617446192       -0.0928616573
 C          6.6150695100       -3.0024914280       -1.3639031478
 C          5.6056736105       -2.5808920877       -2.2133132531
 C          4.7037774970       -1.6177621856       -1.8003804776
 C         -2.0950033364        0.7700532490       -1.5271327650
 C         -1.8349895953        0.1798734982       -2.7446929490
 C         -2.2127225620        0.8495712430       -3.9003801282
 C         -2.8304612275        2.0885183869       -3.8352188957
 C         -3.0842048527        2.6903599166       -2.6138927334
 C         -2.7118157993        2.0261418562       -1.4576489870
 C         -2.8455543927        2.4030287674       -0.0603513833
 C         -3.4024670348        3.5269809637        0.5271237850
 C         -3.3929442364        3.6292753031        1.9088821072
 C         -2.8343971445        2.6305751738        2.6914798337
 C         -2.2752809131        1.4995669251        2.1104437094
 C         -2.2829201988        1.3962945494        0.7360989931
 C         -3.6926637178       -1.3771441599       -0.2778021899
 F         -4.2802804914       -0.6709201860       -1.2504312543
 H         -0.2857515117       -1.8628728235       -0.9168017791
 H          2.1446718264       -2.1484692203       -0.9871703496
 H          0.1270269039        2.0573249854        0.7586608850
 H          2.1996197867        3.6629792144        1.5125581754
 H          4.4244820006        4.6417056427        1.9753160824
 H          6.4686584609        3.4084764968        1.4325560704
 H          6.3719351182        1.1547321026        0.4413697334
 H          5.8756402534       -1.0967177233        1.3301616284
 H          7.4995888490       -2.7910422975        0.5740036306
 H          7.3211067765       -3.7502692497       -1.6917582798
 H          5.5250673776       -2.9975004233       -3.2064023043
 H          3.9294848876       -1.2689321301       -2.4674211022
 H         -1.3524661229       -0.7840025342       -2.8076529559
 H         -2.0226530864        0.3969964135       -4.8621354767
 H         -3.1166380022        2.5894198620       -4.7481936381
 H         -3.5633355189        3.6563857690       -2.5642533195
 H         -3.8366188611        4.3063906394       -0.0803459609
 H         -3.8248712829        4.4980010217        2.3834034572
 H         -2.8331291699        2.7299977887        3.7664973835
 H         -1.8324580849        0.7338351010        2.7287868048
  62
  -111.714284516000       0.152113482267398      !
 F         -5.5149902161       -2.8365498340       -0.5287191095
 C         -4.3559879186       -2.5059606918        0.0284298010
 N         -3.8917596350       -3.3227989797        0.9436191465
 C         -2.7569754814       -3.0089051032        1.5238173247
 F         -2.3187485778       -3.8440508647        2.4594918838
 C         -2.0225280941       -1.8703905325        1.2068540279
 F         -0.8938214798       -1.6271967884        1.8852422331
 C         -2.4757280400       -0.9986129257        0.2097110760
 C         -1.7358343515        0.2711119897       -0.1305597455
 C         -0.2254931670        0.1141667678       -0.1095630200
 C          0.3587311433       -1.0642060232       -0.5852199606
 C          1.7275197991       -1.2327035325       -0.6274357199
 C          2.5259764579       -0.1819738628       -0.2002956045
 C          1.9496234511        1.0379538196        0.2217548397
 C          0.5710999185        1.1786269363        0.2739254008
 C          3.0410071294        1.9214743947        0.5196255796
 C          3.1134405395        3.2301436703        0.9790098498
 C          4.3581766484        3.7901655587        1.1834623246
 C          5.5207907507        3.0585247180        0.9492476348
 C          5.4744317903        1.7553022304        0.4932467039
 C          4.2263108149        1.1938132238        0.2651443777
 N          3.8987893553       -0.0758610809       -0.1694378908
 C          4.8104084862       -1.1166903099       -0.4068656343
 C          4.6532111758       -2.3363898703        0.2449229376
 C          5.5648975134       -3.3536386427        0.0339393162
 C          6.6386977623       -3.1623238542       -0.8201036930
 C          6.7922437018       -1.9512214533       -1.4738524842
 C          5.8810830319       -0.9298327244       -1.2750426243
 C         -2.1029506809        0.8647958452       -1.4801647209
 C         -1.8439144608        0.3609594869       -2.7357580429
 C         -2.2438154580        1.1005539404       -3.8403095643
 C         -2.8817867947        2.3213325317       -3.6856377299
 C         -3.1305881531        2.8378208959       -2.4246661299
 C         -2.7345822146        2.1048472298       -1.3190027957
 C         -2.8494336738        2.3875510290        0.1023231722
 C         -3.4064382696        3.4644599153        0.7720306105
 C         -3.3684267060        3.4785626325        2.1571421895
 C         -2.7792969914        2.4408981032        2.8626481792
 C         -2.2200920617        1.3562528864        2.1990877906
 C         -2.2591836902        1.3391755628        0.8217726636
 C         -3.7017117189       -1.3412613036       -0.3679315835
 F         -4.2871277269       -0.5693357592       -1.2906253576
 H         -0.2742382222       -1.8745689396       -0.9200543439
 H          2.1586906115       -2.1522274327       -0.9931545431
 H          0.1310197635        2.1060474594        0.6069507904
 H          2.2116883172        3.7909253043        1.1735923140
 H          4.4378862723        4.8069839301        1.5378394426
 H          6.4802380788        3.5195891171        1.1315646894
 H          6.3803217740        1.1910804507        0.3312485348
 H          3.8257080908       -2.4713518765        0.9255643626
 H          5.4424330419       -4.2957237804        0.5472488168
 H          7.3539794141       -3.9557530595       -0.9752369330
 H          7.6241934991       -1.8015233281       -2.1460199522
 H          5.9881090401        0.0103263641       -1.7953102330
 H         -1.3450019216       -0.5883722375       -2.8636291130
 H         -2.0555852060        0.7177521799       -4.8321847463
 H         -3.1866586129        2.8768801214       -4.5601051639
 H         -3.6230942420        3.7910743274       -2.3064906641
 H         -3.8630153813        4.2751803628        0.2250304200
 H         -3.8013632974        4.3090360613        2.6950169928
 H         -2.7542634355        2.4729177259        3.9414988326
 H         -1.7535449068        0.5595117211        2.7577223680
  62
  -111.714241359400       0.145322984510917      !
 F         -5.4925614147       -2.8817012205       -0.4381313405
 C         -4.3470378663       -2.5062470212        0.1188483070
 N         -3.8903279754       -3.2648712121        1.0865893683
 C         -2.7678880376       -2.9089048599        1.6664906293
 F         -2.3405322707       -3.6841185174        2.6568415224
 C         -2.0371075478       -1.7839404478        1.2961581714
 F         -0.9193506909       -1.4925963556        1.9729713145
 C         -2.4854804115       -0.9724152222        0.2478940778
 C         -1.7467821162        0.2799229925       -0.1524227660
 C         -0.2371541805        0.1174392034       -0.0713600335
 C          0.3484811015       -1.0331579441       -0.6112685278
 C          1.7162893579       -1.2041986176       -0.6542079054
 C          2.5144987913       -0.1908731048       -0.1435421956
 C          1.9356292398        0.9598309616        0.4377986536
 C          0.5575560110        1.1177431135        0.4576400646
 C          3.0229989532        1.7629013636        0.9199377603
 C          3.0908142295        2.9879664643        1.5709534821
 C          4.3329034111        3.4983875900        1.8892545628
 C          5.4978583779        2.8122561446        1.5512365367
 C          5.4559242274        1.5916175427        0.9052631908
 C          4.2094184605        1.0604049806        0.6062324565
 N          3.8859906029       -0.1165574202       -0.0396013931
 C          4.7972960418       -1.0582717412       -0.5410354224
 C          4.7003623528       -1.4832976882       -1.8627540665
 C          5.5992242963       -2.4099158391       -2.3571007143
 C          6.6029619036       -2.9109193517       -1.5449420228
 C          6.7020252181       -2.4863870764       -0.2303604713
 C          5.8018316783       -1.5670416343        0.2759896332
 C         -2.0660452061        0.7801730013       -1.5525196104
 C         -1.8057733753        0.1779069320       -2.7642711144
 C         -2.1537683402        0.8495073397       -3.9280369572
 C         -2.7426755671        2.1030492009       -3.8774072309
 C         -2.9986093135        2.7162881132       -2.6622983432
 C         -2.6571515941        2.0493209252       -1.4979971904
 C         -2.8099798854        2.4328321310       -0.1045900205
 C         -3.3529092008        3.5709509570        0.4685542973
 C         -3.3734458933        3.6749181262        1.8500401883
 C         -2.8601444874        2.6628236802        2.6465036383
 C         -2.3142868172        1.5182035810        2.0796878808
 C         -2.2896069613        1.4143731958        0.7054196283
 C         -3.6984560794       -1.3576317103       -0.3299321756
 F         -4.2728981040       -0.6395735585       -1.3017384953
 H         -0.2853523143       -1.8210769657       -0.9938069427
 H          2.1460801799       -2.1065176260       -1.0616861822
 H          0.1208479024        2.0060856732        0.8866740825
 H          2.1876922452        3.5255305390        1.8180251449
 H          4.4090946802        4.4468225004        2.3999386326
 H          6.4558632473        3.2452904600        1.7989340837
 H          6.3643594922        1.0751458377        0.6342995383
 H          3.9282189339       -1.0742149120       -2.4972860217
 H          5.5208928593       -2.7352304180       -3.3838906563
 H          7.3063014814       -3.6303703447       -1.9357912765
 H          7.4800432095       -2.8789796346        0.4072443670
 H          5.8620214261       -1.2492830291        1.3061225959
 H         -1.3468795395       -0.7976566241       -2.8187438475
 H         -1.9607207733        0.3875464450       -4.8845459106
 H         -3.0032343370        2.6065311927       -4.7965996831
 H         -3.4572115514        3.6926745642       -2.6234490847
 H         -3.7536986059        4.3596022887       -0.1497725948
 H         -3.7937199151        4.5553180688        2.3133853801
 H         -2.8824206491        2.7636565779        3.7211838436
 H         -1.9061303327        0.7418098257        2.7088616290
  62
  -111.714159683100       0.133290279868050      !
 F         -5.4869518594       -2.8721757409       -0.6382637057
 C         -4.3697816880       -2.5251241306       -0.0100852990
 N         -3.9722987515       -3.3162911609        0.9575679839
 C         -2.8786275262       -2.9899148759        1.6061160360
 F         -2.5099641090       -3.8003191614        2.5921053332
 C         -2.1194885719       -1.8626169014        1.3084931689
 F         -1.0328015994       -1.6045212674        2.0469939719
 C         -2.5042875804       -1.0155540623        0.2627107594
 C         -1.7381865192        0.2424267016       -0.0551396106
 C         -0.2313611832        0.0722498202        0.0357697635
 C          0.3562209653       -1.1159005822       -0.4101528227
 C          1.7252868666       -1.2780832258       -0.4579124933
 C          2.5205319522       -0.2120096709       -0.0648553831
 C          1.9403957907        1.0064298072        0.3568496503
 C          0.5612753191        1.1420135834        0.4119406370
 C          3.0282897606        1.9068613957        0.6142529749
 C          3.0969358926        3.2244205083        1.0481795221
 C          4.3394085475        3.8069276329        1.1958695357
 C          5.5042290453        3.0887104320        0.9323855607
 C          5.4618313837        1.7768414267        0.5015549521
 C          4.2149589065        1.1932645754        0.3277631168
 N          3.8923542446       -0.0875894005       -0.0737355291
 C          4.8007389470       -1.0845957817       -0.4614123427
 C          5.7706439914       -0.8109308657       -1.4208852422
 C          6.6620468061       -1.7972686433       -1.8005717505
 C          6.5886118489       -3.0600110698       -1.2363085627
 C          5.6207043893       -3.3344296567       -0.2843746329
 C          4.7300614425       -2.3522717117        0.1079916924
 C         -2.0014756087        0.8190860892       -1.4365942267
 C         -1.6632971867        0.2903116757       -2.6630109248
 C         -1.9383892210        1.0334544531       -3.8023616443
 C         -2.5313832039        2.2829894255       -3.7102616822
 C         -2.8640422778        2.8218048987       -2.4784356757
 C         -2.5937820272        2.0844319828       -1.3381620396
 C         -2.8068697233        2.3901930387        0.0668271289
 C         -3.3879502161        3.4891520240        0.6774135358
 C         -3.4615716367        3.5202743886        2.0607852108
 C         -2.9565353063        2.4780679173        2.8223226092
 C         -2.3721648063        1.3721456129        2.2179559063
 C         -2.3017915255        1.3367440840        0.8421574463
 C         -3.6873359999       -1.3711388903       -0.3903586094
 F         -4.2009452500       -0.6211220457       -1.3718177797
 H         -0.2739836938       -1.9352393012       -0.7277524943
 H          2.1577372835       -2.2009003947       -0.8131783226
 H          0.1174007083        2.0725775589        0.7310677990
 H          2.1942313600        3.7755042560        1.2647855934
 H          4.4159529892        4.8318965728        1.5265679390
 H          6.4621455669        3.5680721434        1.0697382494
 H          6.3696280659        1.2232440133        0.3147596439
 H          5.8106169087        0.1692279266       -1.8723885621
 H          7.4119575861       -1.5808876005       -2.5468378747
 H          7.2839346253       -3.8285326653       -1.5381485057
 H          5.5624512525       -4.3169368127        0.1600617566
 H          3.9852076949       -2.5554517159        0.8629134986
 H         -1.1934392743       -0.6789176971       -2.7419507451
 H         -1.6835792472        0.6326247217       -4.7719895387
 H         -2.7332717628        2.8436433070       -4.6109266536
 H         -3.3206487536        3.7974494213       -2.4085892213
 H         -3.7797353829        4.3025580019        0.0859980718
 H         -3.9169833743        4.3669830261        2.5528038434
 H         -3.0180697523        2.5229220374        3.8993150283
 H         -1.9725526094        0.5728063314        2.8227227012
  62
  -111.713660076500       7.855886201809656E-002 !
 F         -5.4507796744       -2.8805060063       -0.7193544744
 C         -4.3226127889       -2.5445376229       -0.1050763402
 N         -3.8842538197       -3.3751734297        0.8100949260
 C         -2.7796090922       -3.0573656398        1.4441492579
 F         -2.3657421848       -3.9076425050        2.3773249550
 C         -2.0514194079       -1.9012088277        1.1830432744
 F         -0.9516411157       -1.6610321080        1.9084917648
 C         -2.4763465821       -1.0126893680        0.1875049757
 C         -1.7330442003        0.2687969105       -0.0977633959
 C         -0.2227502333        0.1093903566       -0.0787626349
 C          0.3646319924       -1.0876534447       -0.4991679204
 C          1.7338095730       -1.2544474679       -0.5289084966
 C          2.5281542238       -0.1789793521       -0.1610673890
 C          1.9492065680        1.0649356309        0.1793075961
 C          0.5702319210        1.1993959382        0.2365438314
 C          3.0398501147        1.9736062698        0.3936616342
 C          3.1094128320        3.3193719343        0.7294518999
 C          4.3527852621        3.9043954207        0.8588801230
 C          5.5169866471        3.1606495162        0.6773468312
 C          5.4736006207        1.8202441298        0.3453670167
 C          4.2267472648        1.2331137673        0.1848920834
 N          3.9010327943       -0.0685117022       -0.1424727485
 C          4.8015020386       -1.1297786527       -0.3219101049
 C          5.8691041640       -1.0111412211       -1.2055455933
 C          6.7545126630       -2.0623496100       -1.3600240771
 C          6.5782752156       -3.2363845281       -0.6470082625
 C          5.5107066067       -3.3581626926        0.2270858930
 C          4.6256949171       -2.3100583912        0.3950961633
 C         -2.0870752299        0.9181479573       -1.4245159738
 C         -1.7977153379        0.4742647196       -2.6960332140
 C         -2.1780757869        1.2626769526       -3.7732264438
 C         -2.8266929547        2.4717536660       -3.5755364019
 C         -3.1049486162        2.9281882667       -2.2977510853
 C         -2.7273481427        2.1468581277       -1.2190548963
 C         -2.8563067636        2.3706492737        0.2115938175
 C         -3.4257855415        3.4170326091        0.9181013429
 C         -3.3915560995        3.3816054784        2.3028693806
 C         -2.7906445022        2.3265686685        2.9712358466
 C         -2.2198913616        1.2716517747        2.2705184169
 C         -2.2594171506        1.3007637489        0.8934891744
 C         -3.6718185658       -1.3603910166       -0.4475809699
 F         -4.2320700176       -0.5787171739       -1.3773907514
 H         -0.2633506833       -1.9136603474       -0.8032609138
 H          2.1680120321       -2.1903123267       -0.8460415622
 H          0.1245466882        2.1411073792        0.5187623619
 H          2.2063875257        3.8906189492        0.8836234327
 H          4.4300693943        4.9513058146        1.1116362448
 H          6.4756241704        3.6426003715        0.8002599680
 H          6.3815968083        1.2495960272        0.2228676877
 H          5.9915076789       -0.1023724258       -1.7755625961
 H          7.5829363530       -1.9661558307       -2.0461036773
 H          7.2707312866       -4.0549566468       -0.7721568337
 H          5.3706227636       -4.2705178724        0.7875371968
 H          3.8025222607       -2.3918603242        1.0892723447
 H         -1.2887623386       -0.4652439835       -2.8547157522
 H         -1.9648971338        0.9288367675       -4.7776030913
 H         -3.1144867856        3.0670043167       -4.4295096791
 H         -3.6026995482        3.8739792512       -2.1460387667
 H         -3.8890925939        4.2423296790        0.3992316536
 H         -3.8349046061        4.1871357989        2.8693896389
 H         -2.7653413318        2.3207792765        4.0505301100
 H         -1.7452995290        0.4627970191        2.8034988855
  62
  -111.713530524600       6.849474494139081E-002 !
 F         -5.6041026366       -2.7790070272       -0.1827101063
 C         -4.4203247135       -2.4331939747        0.3096896766
 N         -3.9537578958       -3.1739810553        1.2869864074
 C         -2.7941000326       -2.8448087800        1.8053878535
 F         -2.3566593634       -3.6000110175        2.8068556599
 C         -2.0340971839       -1.7656259138        1.3630217381
 F         -0.8804367203       -1.4960516152        1.9865009733
 C         -2.4943885114       -0.9747531251        0.3048210810
 C         -1.7435543181        0.2446303728       -0.1655788629
 C         -0.2336816671        0.0818940380       -0.0687198274
 C          0.3603787065       -1.0486245012       -0.6402842156
 C          1.7290859066       -1.2152193119       -0.6800713559
 C          2.5219942917       -0.2339798984       -0.1029633476
 C          1.9336935323        0.9004803323        0.5007964350
 C          0.5564490227        1.0636328984        0.5001970098
 C          3.0126790543        1.7042778817        0.9998775639
 C          3.0675347898        2.8912100415        1.7188518256
 C          4.3036545038        3.3849420074        2.0834892401
 C          5.4740870589        2.7068637339        1.7481753911
 C          5.4446983532        1.5255729681        1.0325402920
 C          4.2055686573        1.0321144613        0.6494867120
 N          3.8944784410       -0.1349285287       -0.0206324359
 C          4.8205608933       -1.0002302325       -0.6228857942
 C          5.8083485804       -0.4805213556       -1.4550208384
 C          6.7171922868       -1.3271907482       -2.0611020140
 C          6.6430953000       -2.6945502059       -1.8526530361
 C          5.6604666807       -3.2128653903       -1.0257847382
 C          4.7534646308       -2.3726231924       -0.4056831479
 C         -2.0618680601        0.6706744110       -1.5914730385
 C         -1.8470467564       -0.0105677921       -2.7700501529
 C         -2.1811402855        0.6073337046       -3.9673025653
 C         -2.7143696659        1.8860484979       -3.9843186559
 C         -2.9350284623        2.5748913221       -2.8033656022
 C         -2.6089467403        1.9609794790       -1.6060143439
 C         -2.7561625608        2.4213005916       -0.2357172716
 C         -3.2755656920        3.5992478188        0.2753566850
 C         -3.3144976229        3.7675411185        1.6499730431
 C         -2.8440372475        2.7792400799        2.5010010037
 C         -2.3206946221        1.5957446579        1.9963833020
 C         -2.2754460322        1.4292433200        0.6287594627
 C         -3.7446344201       -1.3313822340       -0.2092256831
 F         -4.3278160405       -0.6233969320       -1.1833093528
 H         -0.2675456894       -1.8229216598       -1.0571654365
 H          2.1613541315       -2.0829809728       -1.1538749452
 H          0.1197309115        1.9459650319        0.9406730669
 H          2.1590222958        3.4056503477        1.9935312709
 H          4.3699490102        4.3034685558        2.6471648181
 H          6.4257075588        3.1105283157        2.0609417762
 H          6.3554245599        0.9969992460        0.7941507012
 H          5.8466405315        0.5840016096       -1.6328856620
 H          7.4793838245       -0.9180986874       -2.7076443383
 H          7.3495390604       -3.3539282598       -2.3336747383
 H          5.6035807810       -4.2779415349       -0.8567283446
 H          3.9999532446       -2.7716690339        0.2565752506
 H         -1.4370380787       -1.0087125467       -2.7783145220
 H         -2.0233516787        0.0805885000       -4.8965926944
 H         -2.9658889464        2.3460184964       -4.9284464116
 H         -3.3571298696        3.5682550277       -2.8154899873
 H         -3.6456030695        4.3685033964       -0.3851195121
 H         -3.7169615869        4.6796613412        2.0651750889
 H         -2.8834860825        2.9293090861        3.5694208137
 H         -1.9460776677        0.8359365520        2.6660637084
  62
  -111.713385350100       5.874077498249521E-002 !
 F         -5.6007119088       -2.7774626782       -0.1713631612
 C         -4.4178232395       -2.4271881400        0.3200552867
 N         -3.9542768404       -3.1577721907        1.3063984988
 C         -2.7954474842       -2.8239813876        1.8237833829
 F         -2.3605740647       -3.5687860531        2.8341084154
 C         -2.0339757516       -1.7498054236        1.3719766655
 F         -0.8814176411       -1.4750572433        1.9953140417
 C         -2.4916350673       -0.9690899038        0.3050170506
 C         -1.7394989637        0.2476561548       -0.1716253014
 C         -0.2306323198        0.0818250991       -0.0712124996
 C          0.3617099960       -1.0506167694       -0.6407157971
 C          1.7300814796       -1.2207745247       -0.6777615048
 C          2.5243386156       -0.2423192027       -0.0978986054
 C          1.9373127565        0.8922372870        0.5070197201
 C          0.5606701006        1.0603358842        0.5014692694
 C          3.0167889733        1.6905287414        1.0138600056
 C          3.0723457129        2.8738630444        1.7387331580
 C          4.3084940106        3.3615089176        2.1114827652
 C          5.4780669479        2.6806025968        1.7788206190
 C          5.4478520379        1.5026974261        1.0576173432
 C          4.2088376212        1.0158544353        0.6657724059
 N          3.8970512216       -0.1477584863       -0.0102558566
 C          4.8232572040       -1.0017996750       -0.6283037331
 C          5.8079486000       -0.4655146143       -1.4537470196
 C          6.7171514708       -1.2991008170       -2.0769593378
 C          6.6465058818       -2.6701201857       -1.8925765338
 C          5.6670432175       -3.2049682172       -1.0725960194
 C          4.7597833894       -2.3778956813       -0.4352410303
 C         -2.0596194158        0.6685001714       -1.5987985110
 C         -1.8331733829       -0.0104046157       -2.7765518795
 C         -2.1723912473        0.6023061539       -3.9751073468
 C         -2.7238633203        1.8732193774       -3.9944638281
 C         -2.9558544864        2.5599522171       -2.8145109838
 C         -2.6227600718        1.9519011523       -1.6161276534
 C         -2.7720578429        2.4151288651       -0.2471078726
 C         -3.3034561461        3.5891887565        0.2607559416
 C         -3.3359323191        3.7647160802        1.6345782320
 C         -2.8473904696        2.7871757282        2.4878953452
 C         -2.3142626086        1.6066555143        1.9865196145
 C         -2.2753790065        1.4329496490        0.6195336341
 C         -3.7403321385       -1.3312099735       -0.2089255436
 F         -4.3205775339       -0.6341624838       -1.1926064934
 H         -0.2673736537       -1.8234321496       -1.0586553203
 H          2.1606713940       -2.0894085325       -1.1514208899
 H          0.1253111932        1.9447287673        0.9391913946
 H          2.1643923915        3.3909467211        2.0103254245
 H          4.3754772521        4.2781144817        2.6782541051
 H          6.4296221189        3.0793741926        2.0979769212
 H          6.3577686653        0.9717524000        0.8213364006
 H          5.8436901773        0.6021119443       -1.6125021617
 H          7.4771647913       -0.8767239631       -2.7174830988
 H          7.3537551867       -3.3192384410       -2.3862087536
 H          5.6134661620       -4.2729343074       -0.9216355296
 H          4.0108525032       -2.7904745036        0.2238665781
 H         -1.4094036465       -1.0026812930       -2.7837348774
 H         -2.0050131113        0.0770840657       -4.9035804553
 H         -2.9793831955        2.3291016705       -4.9394865837
 H         -3.3910814488        3.5475195527       -2.8281626690
 H         -3.6868681099        4.3500934552       -0.4016535828
 H         -3.7477954254        4.6737675396        2.0473635770
 H         -2.8810250667        2.9431015970        3.5556458772
 H         -1.9265526939        0.8552901916        2.6580261282
