85
 energy: -133.006709158209 gnorm: 0.000038038876 xtb: 6.7.1 (edcfbbe)
C            6.03856761343950        3.90979942198583        0.47601214225082
C            6.72103535897546        3.38130093870740       -0.60783268149946
C            6.75693760855111        2.01347618614174       -0.81074986077027
C            6.10426641259181        1.16404666472067        0.07852502790169
N            6.17102043733515       -0.22590078510155       -0.10357883840731
C            5.13035747436452       -1.16656752704340       -0.03159271917205
C            3.75895677848734       -0.90776721437321       -0.09633220575097
C            2.85158013496123       -1.98093527259480        0.18375363797569
C            1.50837439160287       -1.79820513865665        0.17524995696379
C            0.92033185090833       -0.53231430683669       -0.12207026900501
C           -0.49428535080315       -0.32708795156812       -0.09605489218591
C           -1.04968768665310        0.96770222982625        0.02600109396816
C           -2.41532713339472        1.16442747544520        0.05795825312371
N           -2.93239368946392        2.46486732861946        0.17775999390519
C           -2.59065770305793        3.54159566987167       -0.61412636368323
C           -1.73300597795905        3.59888850123121       -1.70467506741418
C           -1.58693742269361        4.81405539147057       -2.34719798963682
C           -2.27993484488971        5.94689392002151       -1.92555204231312
C           -3.15264911929600        5.89045392950435       -0.85450531831502
C           -3.31644388286185        4.68107937625596       -0.19370470974051
C           -4.12952499760303        4.25916740716264        0.91516639471403
C           -5.02812969866591        4.91376846930084        1.74568727888568
C           -5.63787999429928        4.19570839470523        2.75797850003144
C           -5.35039314660836        2.84672733357134        2.95459496961189
C           -4.45882664733643        2.17311504009614        2.14080048827967
C           -3.86106072391956        2.88309520280151        1.10784992417528
C           -3.29772122389435        0.08345406554355       -0.02325605562206
C           -2.76738005582199       -1.20451984258409       -0.14257189357089
N           -3.63938567115184       -2.30231199826347       -0.22169475390514
C           -4.70308819739793       -2.43096313527871       -1.09036386536343
C           -5.13936601099821       -1.56926161222653       -2.08826509425557
C           -6.23452737125185       -1.95385399726926       -2.83921334015084
C           -6.87823402988264       -3.16908724296086       -2.61638308674787
C           -6.43267983470147       -4.04283033572230       -1.64139574047402
C           -5.33597512124559       -3.67811340038788       -0.87359864543433
C           -4.60800037866031       -4.32575406060239        0.18455375197199
C           -4.75186042664486       -5.54034619074200        0.84017903318765
C           -3.86692707526496       -5.85340284138402        1.85560998623621
C           -2.86007785637545       -4.96575304926459        2.22907387963523
C           -2.69680684437169       -3.75057114288993        1.59068348731335
C           -3.56697692262906       -3.44152490835352        0.55352152282177
C           -1.40275425029178       -1.40700012304785       -0.18314762928300
C            1.82552848899286        0.51515347222570       -0.46376599056672
C            3.17247339255463        0.34344236777109       -0.46212014148038
N            5.62307248773553       -2.42641090550548        0.02494743921368
C            6.95274892959057       -2.32065140059728       -0.05375281910059
C            7.93779618552039       -3.32161138276823       -0.04991790292781
C            9.25508572124419       -2.92748702698249       -0.09901964177003
C            9.61892977812629       -1.57700045064656       -0.14539030618174
C            8.66734133160799       -0.56498229235725       -0.15936243269801
C            7.34085037235936       -0.94443127128463       -0.13099150204563
C            5.42381690032529        1.69584026980839        1.17323150906871
C            5.38922304891116        3.06395635299285        1.36230715304158
H            6.01181248446428        4.97790187390135        0.62983894346463
H            7.22503919767873        4.03629364778174       -1.30308994751687
H            7.27271534624416        1.59675648135689       -1.66347871752933
H            3.28572048630892       -2.93726958324934        0.42958401096855
H            0.87153904635628       -2.62855647065603        0.43779258763061
H           -0.40311061159185        1.82172445612421        0.14665203256994
H           -1.20460974890050        2.72185173484846       -2.04665197966225
H           -0.92327228055250        4.88583186770964       -3.19645358473058
H           -2.13665119575535        6.87945401928350       -2.45116064030694
H           -3.70015350444300        6.76590768418257       -0.53935045614010
H           -5.24117049883415        5.96267852982806        1.60459877340562
H           -6.34125344504987        4.68655992537796        3.41427623390781
H           -5.83100409207337        2.31631626793677        3.76349268470158
H           -4.22843233746984        1.13252518859069        2.31185791162092
H           -4.36371750496984        0.23942358032782        0.00750496377311
H           -4.63541522022579       -0.63454896847762       -2.28140285744894
H           -6.59577067725828       -1.29984909027553       -3.61921822179270
H           -7.73175821730124       -3.43350423850110       -3.22295397201668
H           -6.92296429618353       -4.99120345761659       -1.48131937360691
H           -5.54166471321740       -6.22237764097598        0.56357981662941
H           -3.95996238122426       -6.79524710418188        2.37580962056790
H           -2.19358086176736       -5.23166434058486        3.03634331450743
H           -1.92382518457785       -3.06188289355626        1.89638063562577
H           -1.03523686634698       -2.40938074469254       -0.33032264388757
H            1.43059518101627        1.46721759002921       -0.78433521932759
H            3.80965525491728        1.15173713342958       -0.78549930191036
H            7.65042671212862       -4.36007562289992       -0.00597209141717
H           10.03472794251379       -3.67544288648117       -0.09631989424254
H           10.66604572355117       -1.31448248493165       -0.16940864873111
H            8.95965129307783        0.47411699644829       -0.18280398684372
H            4.92527645906493        1.02895345549182        1.86157301669388
H            4.85912420322328        3.47100818336623        2.21046431393140
