85
 energy: -133.097992318944 gnorm: 0.000046441778 xtb: 6.7.1 (edcfbbe)
C            5.63138454476385        3.91303641365281        0.28296287503953
C            6.40456261544508        3.39118194183181       -0.74081767439909
C            6.57030213225210        2.02256553409271       -0.86129572565394
C            5.96028896103435        1.17144997510985        0.05365249327153
N            6.13774935791554       -0.22066514321486       -0.05743412094915
C            5.17392920452793       -1.20707173192312       -0.02762634531331
C            3.74165504847625       -0.95291053757258       -0.03845199588249
C            2.89822455075318       -1.84368635795164        0.62615887513134
C            1.53331362049309       -1.64797475589534        0.62818450488547
C            0.96780944950721       -0.55837986188987       -0.03377784203163
C           -0.48707484723458       -0.34435819758989       -0.02664496600820
C           -1.01071468193352        0.94018307707370        0.08772136611654
C           -2.38603157540707        1.14351569532436        0.08854105240749
N           -2.90220236066976        2.44171215949451        0.20856303928589
C           -2.53007402301263        3.53029767611190       -0.55595208680615
C           -1.64220691558820        3.60063558018564       -1.62019054074312
C           -1.46864688016998        4.82515826041832       -2.23689850742345
C           -2.16572255872425        5.95630511675003       -1.81661180869769
C           -3.06931881443522        5.88697215044699       -0.77463459177981
C           -3.26074440404072        4.66672218184241       -0.13889056966613
C           -4.11002988989038        4.23370081811716        0.93598656126237
C           -5.02863093065462        4.88492735250246        1.74955826768236
C           -5.67425739490085        4.15961724801092        2.73130577685822
C           -5.40348278726219        2.80518807025295        2.91604918654983
C           -4.49476491983918        2.13525105138064        2.11890751790721
C           -3.85970996480207        2.85343749454117        1.11547582864259
C           -3.25182268307898        0.06087900452469       -0.01896943303175
C           -2.73363827879038       -1.22467820167233       -0.12942034089038
N           -3.60005272102311       -2.32109941275021       -0.24163822409040
C           -4.63938077497096       -2.44712792146706       -1.14305082019088
C           -5.05370609231137       -1.57871274667173       -2.14313527866710
C           -6.12087954785127       -1.96458718491959       -2.93203911116246
C           -6.76112662639756       -3.18770218834178       -2.74268649010590
C           -6.33823050146900       -4.06631670774731       -1.76494157865030
C           -5.26717787493631       -3.70096604159031       -0.95929128311005
C           -4.56826279056028       -4.35517295983360        0.11210671809037
C           -4.72563821415487       -5.57889169674433        0.75062082340824
C           -3.87392783732072       -5.89797155244434        1.78968869538419
C           -2.88521483742107       -5.00796363727260        2.20484641363145
C           -2.70908582204309       -3.78542788424900        1.58501034063483
C           -3.54526064676772       -3.47011747239994        0.52330669076327
C           -1.35785893261388       -1.42436206197877       -0.13703362864448
C            1.81274341160761        0.31762731407685       -0.71331583219680
C            3.17895723520031        0.12299526648330       -0.72377472632291
N            5.68112855252792       -2.41250150295322       -0.03028427357510
C            7.03930247419234       -2.25360794787501       -0.06271313186509
C            8.05791612709210       -3.20151388789053       -0.07295093306609
C            9.35821505566955       -2.74352174382233       -0.08695496705162
C            9.65502410015236       -1.37832420465918       -0.08244204005202
C            8.66054764192615       -0.42062583455583       -0.07467823401359
C            7.35059470444392       -0.87330384356581       -0.07925761766782
C            5.19208962050539        1.69455307034394        1.08903324039434
C            5.02573801974011        3.06312917582417        1.19477753088421
H            5.50122554729624        4.98101047459247        0.37091958100874
H            6.87782422671530        4.04964839198383       -1.45385845696531
H            7.15848667221168        1.60790612800929       -1.66679394594025
H            3.33756297810890       -2.68500995882958        1.13971851851788
H            0.89925099253240       -2.33664667737806        1.16584055773789
H           -0.35082906764118        1.78493942161582        0.21094038194598
H           -1.11281617862385        2.72551680736933       -1.96548491998493
H           -0.78013837751046        4.90664021189491       -3.06550225949493
H           -2.00079440869503        6.89649877690553       -2.32229865277819
H           -3.62166755863081        6.75999299828133       -0.46032353081847
H           -5.22722317574740        5.93798107976995        1.61652813758934
H           -6.39355326273473        4.64645438898131        3.37353389993861
H           -5.91263436906413        2.26707196115886        3.70241626640273
H           -4.28156155196440        1.08959494020996        2.28228069086255
H           -4.31940243827956        0.21717460558342       -0.01572790870934
H           -4.55521134180439       -0.63583572542240       -2.31036805476893
H           -6.46383011136347       -1.30453384241084       -3.71559468701525
H           -7.59346954798572       -3.45199016993023       -3.37840175171299
H           -6.82451178822882       -5.02080539578225       -1.62893386808891
H           -5.50270491926769       -6.26164154973626        0.44068705009253
H           -3.97815633928959       -6.84566503182730        2.29743616798313
H           -2.24449896696072       -5.27861967965628        3.03151745689152
H           -1.95296954771795       -3.09451310589201        1.92596677080212
H           -0.96897777158531       -2.42267459294439       -0.26424709184616
H            1.39431790704823        1.14776427347772       -1.26219838362293
H            3.80715045286227        0.79987985647460       -1.28321523452794
H            7.82493405777222       -4.25475009163535       -0.06482553731749
H           10.17193506035087       -3.45394593250524       -0.09495178964412
H           10.68896562825450       -1.06605727212751       -0.08297975172584
H            8.89449133554599        0.63345296153739       -0.05989932929074
H            4.72888899052033        1.02550139202280        1.79938865206127
H            4.42571094806311        3.46628475821760        1.99662056909931
