85
 energy: -133.006703755200 gnorm: 0.000063154246 xtb: 6.7.1 (edcfbbe)
C            5.99942652786555        3.97736585980479        0.48261335148857
C            6.68909944151805        3.45376980711819       -0.59904072183565
C            6.73809720742972        2.08608883724645       -0.80005266297674
C            6.09149978464434        1.23176491326277        0.08899686937133
N            6.17181786158299       -0.15767994940030       -0.09109844912920
C            5.14035204965074       -1.10850729521633       -0.01914748289110
C            3.76638728462910       -0.86390322986908       -0.08527872718004
C            2.87018805392000       -1.94663192906800        0.19410106993706
C            1.52507593417534       -1.77865389818465        0.18260638218459
C            0.92388483876360       -0.51953113934139       -0.11685732160527
C           -0.49313349316982       -0.33048669275821       -0.09611889184042
C           -1.06375967601317        0.95760916391309        0.02612122315177
C           -2.43168628592799        1.13861849893758        0.05259481804862
N           -2.96442517996357        2.43243761366325        0.17556704422654
C           -2.63321068488519        3.51647894236060       -0.61067430701194
C           -1.77368844929106        3.58835237371913       -1.69885899464973
C           -1.64004637306020        4.80796342648480       -2.33565420543950
C           -2.34674221926624        5.93099524215001       -1.91051749634665
C           -3.22134890090219        5.85981861420604       -0.84187846939941
C           -3.37300979121133        4.64569167042837       -0.18693956966688
C           -4.18386506575182        4.20951483985347        0.91805379581310
C           -5.09195637800049        4.84991156631993        1.74933209021984
C           -5.69584366707005        4.12024818801696        2.75683880790134
C           -5.39328841660839        2.77378179080645        2.94810170039302
C           -4.49204140573518        2.11421561274130        2.13347078337435
C           -3.90003428045712        2.83578540130698        1.10525303923999
C           -3.30128476025064        0.04798673818069       -0.03677403662033
C           -2.75565911408363       -1.23349559830529       -0.15683563341038
N           -3.61540306362978       -2.34030932077545       -0.24538329353034
C           -4.66905646222763       -2.47799549413293       -1.12468850403176
C           -5.10283462552274       -1.61921145508616       -2.12616608086588
C           -6.18682704992243       -2.01291385501704       -2.88847766060529
C           -6.82189940735855       -3.23399930650324       -2.67289957305719
C           -6.37857687061728       -4.10457069020905       -1.69403049784769
C           -5.29278239450031       -3.73094932479390       -0.91509107146495
C           -4.56952580414455       -4.37267188539800        0.14993059094875
C           -4.70880458854782       -5.58879297594554        0.80367825903757
C           -3.83124954981334       -5.89414436394778        1.82785928542774
C           -2.83603689426437       -4.99773944869763        2.21150071091867
C           -2.67735815759560       -3.78090701206155        1.57509626747076
C           -3.54024134581278       -3.47925010949234        0.52972565779430
C           -1.38868792701057       -1.42061093218644       -0.18959033536787
C            1.81821957928132        0.53791457597021       -0.45620733905440
C            3.16699285884190        0.38088845608390       -0.45205090559622
N            5.64548067808003       -2.36337988123388        0.03857673944465
C            6.97406917436772       -2.24465519448118       -0.03954768999971
C            7.96876401510330       -3.23601759133392       -0.03443959403447
C            9.28218840948735       -2.82917854275281       -0.08315239514344
C            9.63284763966818       -1.47524644278468       -0.13038417184566
C            8.67146740489270       -0.47253017549583       -0.14559024366000
C            7.34867699009913       -0.86475298689674       -0.11759506029166
C            5.40375671882006        1.75870674559666        1.18150813759622
C            5.35590563817591        3.12670181345944        1.36854201846104
H            5.96246604955552        5.04537460867037        0.63493619786991
H            7.18854090566970        4.11244979240879       -1.29410568798621
H            7.25945185344328        1.67312711237332       -1.65120404033060
H            3.31423496496745       -2.89799183892614        0.44151541764354
H            0.89677243765747       -2.61568315554760        0.44458830759771
H           -0.42745496267225        1.81866042834968        0.15154232103470
H           -1.23443643989382        2.71890768300962       -2.04328501376024
H           -0.97530119732631        4.89107697047973       -3.18301691483083
H           -2.21272506048240        6.86753702988290       -2.43147940134156
H           -3.77944196495071        6.72759203594206       -0.52405304557259
H           -5.31679856654051        5.89690485216178        1.61239877555014
H           -6.40638602744622        4.59997978974721        3.41364107409963
H           -5.86969373820601        2.23417750355760        3.75341545907301
H           -4.25001825586408        1.07557576070248        2.30028124500023
H           -4.36917142986884        0.19172609692573       -0.01165338095323
H           -4.60525564181259       -0.67978849554297       -2.31303774574767
H           -6.54586085266953       -1.36161713512027       -3.67176656349693
H           -7.66683419130973       -3.50557024424626       -3.28826269114709
H           -6.86227842245899       -5.05724957119194       -1.53953520152117
H           -5.48955524968147       -6.27792461480876        0.51908460612815
H           -3.92105510038541       -6.83694606976722        2.34689179304617
H           -2.17517229857186       -5.25809108040306        3.02518408891750
H           -1.91346365560750       -3.08541079900807        1.88816379615237
H           -1.00897439517737       -2.41853692002479       -0.33623732258884
H            1.41347400377667        1.48568889685498       -0.77729057489891
H            3.79595249148746        1.19602761387772       -0.77434440959499
H            7.69135038462820       -4.27715709991589        0.01009495917086
H           10.06909224128989       -3.56948287952108       -0.07953051490060
H           10.67736941535231       -1.20255470065450       -0.15413523218138
H            8.95380904036135        0.56930426244362       -0.16955847607074
H            4.90987089348829        1.08817070652814        1.86965855407609
H            4.82003073697360        3.52994843459835        2.21488094621567
