59
 energy: -100.744559266722 gnorm: 0.000076424997 xtb: 6.7.1 (edcfbbe)
Br           6.09307958674164       -4.15283967311990       -1.28250175602085
C            4.73123911993490       -2.86650762470463       -0.88835618015019
C            3.39601913186011       -3.24351388781052       -1.03045953884111
C            2.38354813445971       -2.34750977762708       -0.75206056284568
C            2.73495449254405       -1.07260452155045       -0.32045290709930
C            4.09698773170603       -0.69125397246642       -0.20429072229507
C            5.10722844490699       -1.59759999755573       -0.48582460139113
C            4.09665325464844        0.68467700343223        0.20864227868350
C            5.10642901544763        1.59101197002037        0.49189364325769
C            4.72977919941251        2.85984078166601        0.89405611435260
Br           6.09095925819028        4.14616357046584        1.29055411598105
C            3.39432993882076        3.23683153043292        1.03402751692649
C            2.38231677044548        2.34083721886686        0.75393549570719
C            2.73444202272692        1.06598724295806        0.32275131971872
N            1.93082478171026       -0.00331378893704        0.00050744651632
C            0.53016828916972       -0.00331364682107       -0.00038629302898
C           -0.17758608988663        1.01557809956621       -0.65506256755041
C           -1.54664954922396        1.01801131400452       -0.65476758397201
C           -2.27509630802229       -0.00243719605404       -0.00147538665939
C           -3.69147191199917       -0.00159478959160       -0.00131184533307
N           -4.37489380560912        0.98915861381539       -0.62930137944332
C           -5.68123648251410        0.97649559517882       -0.60384420421824
C           -6.41511802418960        2.05584399427593       -1.25365773063550
C           -7.81090914495339        2.06752874708711       -1.23571957723076
C           -8.50471082408486        3.09356856752467       -1.84642278492451
C           -7.81857993022597        4.11830885716494       -2.48083879805061
C           -6.43106125364304        4.11267162100415       -2.50325733756790
C           -5.73088685875794        3.09049834467503       -1.89508351578254
N           -6.39136848241011       -0.00047070670286       -0.00256534240996
C           -5.68256410417143       -0.97792126205119        0.59953599076519
C           -6.41796410975952       -2.05668797935987        1.24856848458055
C           -5.73518155260709       -3.09358018816706        1.88792387127490
C           -6.43680547053536       -4.11537164201178        2.49506379154478
C           -7.82435219972040       -4.11833742134023        2.47375825135751
C           -8.50905293354505       -3.09130254466734        1.84150620273155
C           -7.81379403500087       -2.06568349702863        1.23176070084932
N           -4.37624940681696       -0.99165875577339        0.62620205027044
C           -1.54775301977083       -1.02343441883348        0.65221016440598
C           -0.17867791521057       -1.02187840067944        0.65358395270145
H            3.15809980285345       -4.24108030148951       -1.36485510897751
H            1.35122953588691       -2.63114488217696       -0.87947692540525
H            6.14669167432400       -1.32468164901507       -0.39881509427493
H            6.14603559096420        1.31813225772542        0.40650286820522
H            3.15587206807727        4.23434838292609        1.36818737268459
H            1.34979430235404        2.62441962115776        0.87980244330562
H            0.36849196889611        1.77989015437426       -1.18779033570688
H           -2.09900423753496        1.79067012348870       -1.16653734530450
H           -8.33015165921186        1.26332817535629       -0.73726327209534
H           -9.58466593400555        3.09638669616830       -1.82853040318671
H           -8.36334856173526        4.91982562212156       -2.95707474971162
H           -5.89590907971495        4.91037054233471       -2.99720762297403
H           -4.65176206075679        3.07278196664331       -1.90455696121278
H           -4.65601521793076       -3.07794865170889        1.89647674137628
H           -5.90277522481932       -4.91488747608400        2.98728819961175
H           -8.37025779729593       -4.91959099512506        2.94913202227965
H           -9.58902648217657       -3.09203698848297        1.82451828302846
H           -8.33189810259236       -1.25973641382077        0.73493835737676
H           -2.10097737782704       -1.79561659385725        1.16376630577505
H            0.36646082914967       -1.78647370438398        1.18686542458269
