59
 energy: -100.828200992128 gnorm: 0.000089300176 xtb: 6.7.1 (edcfbbe)
Br           6.10375577818162       -4.16323340923155       -1.21531839184735
C            4.73399930231989       -2.87337005980577       -0.83688165460793
C            3.40176288275309       -3.26135763284159       -0.96555986001385
C            2.38380475311508       -2.36730267244514       -0.70072355611425
C            2.72749510789324       -1.08319096905294       -0.29594577093382
C            4.08408590938584       -0.69270889890325       -0.18989780685744
C            5.10173403276184       -1.59858608426639       -0.45925907230750
C            4.08041373759726        0.68926587172416        0.19711911854928
C            5.09309920774233        1.59931986776845        0.47114715822619
C            4.71841646991043        2.87246492068458        0.84746253307568
Br           6.08103178233810        4.16805674340178        1.23210778279824
C            3.38401166855980        3.25485189577102        0.97044136097691
C            2.37096558730443        2.35661754990542        0.70101171620424
C            2.72181248595751        1.07410410886566        0.29727918586202
N            1.91783433645669       -0.00616815705402       -0.00124337999877
C            0.51487002674252       -0.00801592611248       -0.00457485662146
C           -0.18407780217162        0.98469913823672       -0.68982763265500
C           -1.56319166393146        0.98496039689572       -0.68700168751403
C           -2.26831342401590       -0.00833893278624       -0.00832632206351
C           -3.73176108378177       -0.00659440058151       -0.00781913752486
N           -4.35301705184572        1.00572121774589       -0.60632879705413
C           -5.68404712908627        0.96866987487804       -0.58148094665651
C           -6.41335423205614        2.05945095151250       -1.22762699325300
C           -7.80771652590323        2.05714885564955       -1.24801626224578
C           -8.49355400636393        3.09002014292007       -1.85761366223977
C           -7.79758427617447        4.13225179442806       -2.45137114577522
C           -6.41094612764705        4.14011361829095       -2.43501041731444
C           -5.71938242104946        3.11006286309679       -1.82723319769228
N           -6.38884021841432       -0.00034274734384       -0.00276530010068
C           -5.68638186102979       -0.97330495454958        0.57217248961680
C           -6.41843725882307       -2.06028195146938        1.22158239073862
C           -5.72749762681060       -3.11950021334853        1.80941371186663
C           -6.42170281383935       -4.14540464228479        2.42118594113291
C           -7.80791252562200       -4.12444149176354        2.45382268190694
C           -8.50085578770919       -3.07356749893398        1.87186466014110
C           -7.81238492590278       -2.04495531706233        1.25805265551353
N           -4.35544579609758       -1.01679134880898        0.59174634228041
C           -1.56476932845385       -1.00200724023989        0.67141962124390
C           -0.18561266869064       -1.00150567073855        0.67790140420630
H            3.16919848687643       -4.26720084229551       -1.27891247488571
H            1.35399294956863       -2.66411397853636       -0.81898316983516
H            6.13904928025523       -1.31472002880484       -0.38063537518604
H            6.13190955074594        1.31976213949003        0.39702952190990
H            3.14587307207542        4.25958795042984        1.28315860885240
H            1.33942059565932        2.64905824987820        0.81502074810926
H            0.35861566845585        1.74112555614566       -1.23582122360073
H           -2.11545638018006        1.74492408363571       -1.21647108557603
H           -8.33286611646434        1.23822186459447       -0.78176084953073
H           -9.57335486723982        3.08425161994508       -1.87080549271956
H           -8.33607506872879        4.93866174321232       -2.92676970025493
H           -5.86945028381693        4.95190776276454       -2.89764320103372
H           -4.64091334840782        3.10068626629252       -1.80455613306787
H           -4.64931963449320       -3.12018373256017        1.77422289704977
H           -5.88258468320727       -4.96390850913616        2.87466385641304
H           -8.34849715545029       -4.92753459135177        2.93244994513508
H           -9.58032599153282       -3.05765834297420        1.89772996433734
H           -8.33507049157085       -1.21940410434173        0.80079777989878
H           -2.11823453571191       -1.76188818538665        1.19977581292667
H            0.35566296862389       -1.75784726544387        1.22540472037215
