59
 energy: -100.828188910546 gnorm: 0.000033072202 xtb: 6.7.1 (edcfbbe)
Br           8.08640773474960       -3.51111511131992       -2.55594491445904
C            6.72070308676824       -2.41934335488484       -1.76406933989510
C            5.38735702078325       -2.73516086296192       -2.01789342346876
C            4.37200361759186       -1.98127831239010       -1.46424393720288
C            4.71975020877570       -0.91298794884995       -0.64651584581373
C            6.07736231786052       -0.58443349421249       -0.41649075294220
C            7.09220551911584       -1.34864881598941       -0.97754837466410
C            6.07737357038696        0.58433185346449        0.41641886606688
C            7.09223149167282        1.34852675677149        0.97747764445940
C            6.72074974889207        2.41922686621511        1.76400072252231
Br           8.08647502003779        3.51097875883471        2.55586777033407
C            5.38740978101506        2.73507220494114        2.01782228764898
C            4.37204186466729        1.98120933731166        1.46417266093863
C            4.71976790061798        0.91291214411755        0.64644471719041
N            3.91325588645120       -0.00003105956842       -0.00003419752010
C            2.51040877833443       -0.00002049424731       -0.00002814144448
C            1.81119559134538        1.16569869631439       -0.30906069808170
C            0.43205806388920        1.16450327621251       -0.30427068357709
C           -0.27219335905999        0.00000231487115       -0.00001063306822
C           -1.73573778348180        0.00001549070636        0.00000222032006
N           -2.35823886698065        1.15032167348263       -0.24189871929546
C           -3.68919977085346        1.10583492524427       -0.22978343660533
C           -4.42098352169367        2.34617713862017       -0.48527652815955
C           -3.73185233359058        3.51704296956644       -0.79994182882359
C           -4.42670315074183        4.68640588949356       -1.04180216160993
C           -5.81156937892435        4.69997684248714       -0.97048247956008
C           -6.50265455529741        3.53927636292381       -0.65686992075528
C           -5.81357738974598        2.36650172577205       -0.41488653313568
N           -4.39270349577528        0.00003847241310        0.00003605999874
C           -3.68921322277350       -1.10576961529533        0.22984043332868
C           -4.42101118377118       -2.34610186511293        0.48534080773501
C           -3.73189121725637       -3.51698069830837        0.79998261172082
C           -4.42675487195592       -4.68633445080476        1.04185069211727
C           -5.81162315458357       -4.69988225776885        0.97056577718214
C           -6.50269737074411       -3.53916831733168        0.65697832717644
C           -5.81360691363314       -2.36640415989616        0.41498170493846
N           -2.35825296187217       -1.15027911746470        0.24192167904647
C            0.43204278199542       -1.16451043982080        0.30424021573554
C            1.81118037960557       -1.16572874018369        0.30901138147600
H            5.15177682776283       -3.57332825025832       -2.65500173454522
H            3.34112973591480       -2.21653989218974       -1.67558618566921
H            8.13034012833300       -1.11132869076815       -0.80794292680756
H            8.13036147715519        1.11119018715097        0.80786703229020
H            5.15184586156100        3.57324033820713        2.65493556972661
H            3.34117273047402        2.21648639972502        1.67552069858932
H            2.35398332719906        2.06177333173135       -0.56869907005803
H           -0.12076180700290        2.05866343220513       -0.54445277438290
H           -2.65469984025656        3.48850524367681       -0.85155293314242
H           -3.88920040432928        5.59065440773106       -1.28603553054587
H           -6.35257241111901        5.61530712988137       -1.15947885799376
H           -7.58103567944792        3.55062875815740       -0.60044006756295
H           -6.33464289209853        1.45469849218354       -0.16805998230204
H           -2.65473778665494       -3.48845748634608        0.85158095245980
H           -3.88926175077541       -5.59058896313660        1.28608276590516
H           -6.35263630439615       -5.61520519181303        1.15956821132842
H           -7.58107911328086       -3.55050685620038        0.60055893212069
H           -6.33466307308282       -1.45459348573821        0.16816295778882
H           -0.12078867943679       -2.05866108742152        0.54443098423337
H            2.35395679165891       -2.06181340014343        0.56863892870190
