  59
       -100.77989672
 Br         6.0968393278       -4.1565021689       -1.2173492589
 C          4.7317609958       -2.8691554944       -0.8419221608
 C          3.3993976401       -3.2557933035       -0.9734442230
 C          2.3817993630       -2.3624407318       -0.7075181772
 C          2.7269421970       -1.0798832989       -0.3003772537
 C          4.0832984742       -0.6889350678       -0.1931544712
 C          5.0999870879       -1.5952078673       -0.4628159744
 C          4.0780738597        0.6913356068        0.1971098413
 C          5.0877282135        1.6049827936        0.4681473306
 C          4.7097736213        2.8760154930        0.8475613396
 Br         6.0647679851        4.1732485646        1.2254440640
 C          3.3745261479        3.2528557416        0.9776898746
 C          2.3638285490        2.3522831861        0.7098982928
 C          2.7188042389        1.0724316570        0.3026278525
 N          1.9173790811       -0.0066135738        0.0005394635
 C          0.5121669280       -0.0102174937       -0.0030259453
 C         -0.1845571298        0.9691622681       -0.7069466050
 C         -1.5637331920        0.9680907515       -0.7046399016
 C         -2.2649922181       -0.0137325410       -0.0080629208
 C         -3.7291911265       -0.0123325209       -0.0084944077
 N         -4.3465519306        0.9982644032       -0.6095675361
 C         -5.6773813274        0.9649807092       -0.5819377463
 C         -6.4056970004        2.0560904259       -1.2257875091
 C         -7.7994812282        2.0541313133       -1.2412420133
 C         -8.4852904953        3.0874055483       -1.8492958415
 C         -7.7894500986        4.1281146214       -2.4451010240
 C         -6.4027881161        4.1347262888       -2.4323263219
 C         -5.7108814471        3.1043519943       -1.8264337968
 N         -6.3812651722       -0.0015966680       -0.0016784894
 C         -5.6820513814       -0.9750620361        0.5727585246
 C         -6.4167685046       -2.0598914133        1.2201220057
 C         -5.7293594477       -3.1220283550        1.8047589818
 C         -6.4281380694       -4.1445876663        2.4160932745
 C         -7.8139067407       -4.1168003464        2.4497520630
 C         -8.5023849762       -3.0626374969        1.8692161412
 C         -7.8099103742       -2.0369967747        1.2559508599
 N         -4.3512787852       -1.0194791678        0.5934245102
 C         -1.5639426851       -0.9944489762        0.6901227163
 C         -0.1845893197       -0.9920401863        0.6973603885
 H          3.1676018073       -4.2608619946       -1.2892700751
 H          1.3507797406       -2.6562890329       -0.8259297809
 H          6.1375261451       -1.3130542190       -0.3817074384
 H          6.1274465635        1.3301794418        0.3895557136
 H          3.1349627614        4.2559947914        1.2939709696
 H          1.3305531702        2.6386470946        0.8269944907
 H          0.3625196252        1.7148818180       -1.2647274219
 H         -2.1178836448        1.7177074961       -1.2470364651
 H         -8.3238543736        1.2360881278       -0.7731029937
 H         -9.5653900586        3.0853473549       -1.8604521525
 H         -8.3281729123        4.9353805244       -2.9194579254
 H         -5.8631916761        4.9472132011       -2.8969318310
 H         -4.6322839091        3.0938619444       -1.8061828691
 H         -4.6512990345       -3.1284759385        1.7675505496
 H         -5.8946376446       -4.9679022485        2.8679496494
 H         -8.3579521795       -4.9178706381        2.9285174549
 H         -9.5819134878       -3.0433944360        1.8975145058
 H         -8.3286021374       -1.2084086681        0.8000205655
 H         -2.1180861875       -1.7452224664        1.2309691678
 H          0.3622757545       -1.7359891394        1.2576890675
