  38
        -61.68730497
 C          3.1308912283        2.6580575845       -0.5645804885
 C          1.7703481279        2.8611524791       -0.4113552191
 C          0.9497471939        1.7788474451       -0.0801116647
 C         -0.4979385797        1.9077920726        0.0878753803
 C         -1.1271126317        3.1270093006        0.3357744339
 C         -2.5043741395        3.2300205920        0.4827542383
 C         -3.3260313239        2.1214340758        0.3847408713
 C         -2.7403540477        0.8871682713        0.1460230069
 C         -1.3336541139        0.7863296628        0.0099555525
 N         -1.0005675927       -0.5152651832       -0.2153388391
 C         -2.1346563592       -1.2825097810       -0.2290424384
 C         -2.2784461689       -2.6493005034       -0.4142803121
 C         -3.5572855276       -3.1710793862       -0.3773448477
 C         -4.6677620289       -2.3567711404       -0.1615464128
 C         -4.5303674853       -0.9954469876        0.0249712604
 C         -3.2552214831       -0.4460127180       -0.0066226491
 N          1.4619835330        0.5539014528        0.0768539748
 C          2.7653174461        0.3742721300       -0.0597807834
 N          3.2259381169       -0.9255036004        0.1345635664
 C          2.5259228690       -1.9790713704        0.6294071519
 C          3.3783017769       -3.0508130382        0.6399218601
 C          4.5875314823       -2.5463404839        0.1258026093
 N          4.4808526703       -1.2710850719       -0.1684692683
 C          3.6586972106        1.3922662350       -0.3821149270
 H          3.7775494894        3.4824487448       -0.8265658861
 H          1.3481153571        3.8397619288       -0.5687358190
 H         -0.5320714002        4.0211305818        0.4404450634
 H         -2.9374379286        4.1994743420        0.6793527914
 H         -4.3956602963        2.2122928628        0.4964726393
 H         -0.0422384147       -0.8087246961       -0.3262214612
 H         -1.4195351510       -3.2820342905       -0.5825544579
 H         -3.7012886778       -4.2321168971       -0.5184891296
 H         -5.6505094812       -2.8037230949       -0.1402063687
 H         -5.3937685538       -0.3694373632        0.1927016576
 H          1.5112815477       -1.8720676608        0.9518030818
 H          3.1743385763       -4.0494210093        0.9669974310
 H          5.5126680811       -3.0631182068       -0.0340709209
 H          4.7069859931        1.1712048995       -0.4855503318
