  38
  -61.6873049700000       0.598541231194552      !
 C          3.1308912283        2.6580575845       -0.5645804885
 C          1.7703481279        2.8611524791       -0.4113552191
 C          0.9497471939        1.7788474451       -0.0801116647
 C         -0.4979385797        1.9077920726        0.0878753803
 C         -1.1271126317        3.1270093006        0.3357744339
 C         -2.5043741395        3.2300205920        0.4827542383
 C         -3.3260313239        2.1214340758        0.3847408713
 C         -2.7403540477        0.8871682713        0.1460230069
 C         -1.3336541139        0.7863296628        0.0099555525
 N         -1.0005675927       -0.5152651832       -0.2153388391
 C         -2.1346563592       -1.2825097810       -0.2290424384
 C         -2.2784461689       -2.6493005034       -0.4142803121
 C         -3.5572855276       -3.1710793862       -0.3773448477
 C         -4.6677620289       -2.3567711404       -0.1615464128
 C         -4.5303674853       -0.9954469876        0.0249712604
 C         -3.2552214831       -0.4460127180       -0.0066226491
 N          1.4619835330        0.5539014528        0.0768539748
 C          2.7653174461        0.3742721300       -0.0597807834
 N          3.2259381169       -0.9255036004        0.1345635664
 C          2.5259228690       -1.9790713704        0.6294071519
 C          3.3783017769       -3.0508130382        0.6399218601
 C          4.5875314823       -2.5463404839        0.1258026093
 N          4.4808526703       -1.2710850719       -0.1684692683
 C          3.6586972106        1.3922662350       -0.3821149270
 H          3.7775494894        3.4824487448       -0.8265658861
 H          1.3481153571        3.8397619288       -0.5687358190
 H         -0.5320714002        4.0211305818        0.4404450634
 H         -2.9374379286        4.1994743420        0.6793527914
 H         -4.3956602963        2.2122928628        0.4964726393
 H         -0.0422384147       -0.8087246961       -0.3262214612
 H         -1.4195351510       -3.2820342905       -0.5825544579
 H         -3.7012886778       -4.2321168971       -0.5184891296
 H         -5.6505094812       -2.8037230949       -0.1402063687
 H         -5.3937685538       -0.3694373632        0.1927016576
 H          1.5112815477       -1.8720676608        0.9518030818
 H          3.1743385763       -4.0494210093        0.9669974310
 H          5.5126680811       -3.0631182068       -0.0340709209
 H          4.7069859931        1.1712048995       -0.4855503318
  38
  -61.6865691800000       0.274756769321820      !
 C          3.2244701568        2.7622047327       -0.0042166839
 C          1.8605834736        2.9899454374       -0.0063102529
 C          0.9909263271        1.8914302939        0.0070050758
 C         -0.4655126088        1.9781953630        0.0082109753
 C         -1.1598692411        3.1879980201        0.0302126070
 C         -2.5463611722        3.2452601885        0.0338219476
 C         -3.3132351834        2.0932867189        0.0150796846
 C         -2.6650770064        0.8686136246       -0.0071026927
 C         -1.2453305003        0.8080345269       -0.0095738734
 N         -0.8558008385       -0.4948499691       -0.0320416486
 C         -1.9616029171       -1.2987664435       -0.0440752280
 C         -2.0441671147       -2.6836889303       -0.0669804840
 C         -3.3027531961       -3.2521919091       -0.0736626907
 C         -4.4548959049       -2.4663685910       -0.0578632685
 C         -4.3797933089       -1.0878634329       -0.0356637056
 C         -3.1250332787       -0.4918386408       -0.0289364832
 N          1.4839696296        0.6554658603        0.0201952380
 C          2.7829023258        0.4390212652        0.0224277013
 N          3.1220766624       -0.9154867977        0.0344063027
 C          4.3482996846       -1.4946076403        0.0916958842
 C          4.1513239181       -2.8502567058        0.0823049710
 C          2.7545199394       -3.0031578706        0.0153964110
 N          2.1528611617       -1.8376781173       -0.0113149013
 C          3.7214682760        1.4668036770        0.0108836253
 H          3.9110780257        3.5962188182       -0.0158203333
 H          1.4856144468        3.9994726133       -0.0199512648
 H         -0.6120050709        4.1172050972        0.0478298617
 H         -3.0311396118        4.2101430057        0.0522839003
 H         -4.3914607459        2.1464252697        0.0183693749
 H          0.1182221910       -0.7812509934       -0.0318121740
 H         -1.1495125205       -3.2869867408       -0.0788057793
 H         -3.4008828086       -4.3279292926       -0.0906521922
 H         -5.4207891895       -2.9497872962       -0.0622756630
 H         -5.2757271535       -0.4851344717       -0.0230663889
 H          5.2523068728       -0.9244510060        0.1389082193
 H          4.8930151777       -3.6209963095        0.1185651819
 H          2.1842504870       -3.9101381708       -0.0121289994
 H          4.7821328085        1.2797706330        0.0089944756
  38
  -61.6858377000000       0.126701999483628      !
 C          3.1758325198        2.7275111488        0.5320260340
 C          1.8211726582        2.9544990097        0.3711744682
 C          0.9838689714        1.8689505809        0.0853366710
 C         -0.4628895938        1.9614673018       -0.0808409509
 C         -1.1361884215        3.1690771581       -0.2597695274
 C         -2.5167150106        3.2306912629       -0.3917796832
 C         -3.2957793520        2.0883983849       -0.3323381602
 C         -2.6654911919        0.8658619716       -0.1592464206
 C         -1.2506472804        0.7985920214       -0.0585704090
 N         -0.8740714507       -0.5003327384        0.0902282534
 C         -1.9871554889       -1.2952211311        0.1017269735
 C         -2.0876782818       -2.6710354004        0.2507219850
 C         -3.3519882593       -3.2271182130        0.2487948840
 C         -4.4925165142       -2.4389842523        0.0972947868
 C         -4.3996639020       -1.0697586256       -0.0541518944
 C         -3.1393185532       -0.4857203177       -0.0495936997
 N          1.4909848057        0.6439250785       -0.0257972455
 C          2.7825772307        0.4303578192        0.1215755448
 N          3.1491338550       -0.9086747548       -0.0280151286
 C          4.3884369709       -1.4496859911       -0.1460605892
 C          4.2200778924       -2.7981077531       -0.3214408269
 C          2.8260238688       -2.9865159805       -0.2928926388
 N          2.1991759728       -1.8469856037       -0.1185406202
 C          3.6914588967        1.4456923068        0.4063465608
 H          3.8380690328        3.5487842127        0.7647557727
 H          1.4223492846        3.9488380690        0.4842018585
 H         -0.5732504512        4.0882260151       -0.3146208917
 H         -2.9870074743        4.1916556582       -0.5388502465
 H         -4.3699798022        2.1463486279       -0.4226180365
 H          0.0959266043       -0.7958885229        0.1051775254
 H         -1.2029974348       -3.2780844102        0.3678752294
 H         -3.4635501723       -4.2950567842        0.3677260195
 H         -5.4631338019       -2.9127642651        0.1001824364
 H         -5.2861795110       -0.4640813473       -0.1696651516
 H          5.2795821991       -0.8577473207       -0.1126003712
 H          4.9784470933       -3.5418395044       -0.4528186056
 H          2.2744350740       -3.9002128091       -0.3925930715
 H          4.7428866643        1.2542725117        0.5410554283
