  38
  -61.4709632101000       0.455688140226625      !
 C          3.3268784345        2.6375410528       -0.0475145696
 C          1.9726693576        2.9169721253       -0.0378632489
 C          1.0620795584        1.8523914329       -0.0112073332
 C         -0.3899341800        1.9944841198        0.0032763600
 C         -1.0375924902        3.2299010804        0.0261088017
 C         -2.4208105909        3.3398629602        0.0424773406
 C         -3.2310335405        2.2178151517        0.0363631360
 C         -2.6301048165        0.9692947161        0.0138540592
 C         -1.2137727682        0.8547586665       -0.0016732674
 N         -0.8742476791       -0.4620818850       -0.0216693660
 C         -2.0098532768       -1.2234097275       -0.0195281680
 C         -2.1451801370       -2.6042771076       -0.0351394249
 C         -3.4244589860       -3.1245305878       -0.0273191998
 C         -4.5457163902       -2.2954003835       -0.0043917407
 C         -4.4180959223       -0.9206649435        0.0106141760
 C         -3.1415943297       -0.3727641236        0.0027454111
 N          1.5079220377        0.5986403884        0.0031649214
 C          2.7976573978        0.3329678439       -0.0057902956
 N          3.0852344872       -1.0333938455        0.0093741880
 C          4.2890664173       -1.6584726204        0.0578629070
 C          4.0406570841       -3.0056784278        0.0567026221
 C          2.6384769205       -3.1056401289        0.0036429997
 N          2.0812955568       -1.9182503979       -0.0228973278
 C          3.7744332488        1.3242548451       -0.0309897524
 H          4.0445286483        3.4447830077       -0.0694941545
 H          1.6362049025        3.9399597142       -0.0527303499
 H         -0.4546839248        4.1376694293        0.0342043409
 H         -2.8683888170        4.3225542634        0.0609533874
 H         -4.3063815705        2.3119321878        0.0495346705
 H          0.0881508996       -0.7853125228       -0.0292451020
 H         -1.2742418841       -3.2412064425       -0.0525322540
 H         -3.5635381827       -4.1958218000       -0.0383236597
 H         -5.5292734099       -2.7417526981        0.0025473683
 H         -5.2903266642       -0.2842520388        0.0287936817
 H          5.2144891704       -1.1229065442        0.0938947647
 H          4.7528491926       -3.8039009819        0.0896179512
 H          2.0339297511       -3.9903890039       -0.0142541960
 H          4.8271610916        1.0970153340       -0.0419657501
  38
  -61.4707586768000       0.367003942154678      !
 C          3.2240531089        2.5345940755       -0.6064779943
 C          1.8737351209        2.7899451123       -0.4414318592
 C          1.0158219009        1.7410785324       -0.0974025340
 C         -0.4242472485        1.9257116701        0.0835723611
 C         -1.0042537677        3.1690390486        0.3316329285
 C         -2.3751388114        3.3249884586        0.4910619988
 C         -3.2392133647        2.2480346880        0.4059917035
 C         -2.7031540076        0.9913637632        0.1675913695
 C         -1.3026661815        0.8365133640        0.0187871903
 N         -1.0214327816       -0.4777733315       -0.2034999967
 C         -2.1839263406       -1.2013877304       -0.2029354795
 C         -2.3812964471       -2.5625136646       -0.3803803736
 C         -3.6786208149       -3.0351175689       -0.3289744309
 C         -4.7552481792       -2.1782388051       -0.1065845792
 C         -4.5644638337       -0.8223266725        0.0722258634
 C         -3.2697283729       -0.3219239855        0.0260657521
 N          1.4826370203        0.4982326847        0.0605050529
 C          2.7768398353        0.2685776813       -0.0875243125
 N          3.1895941430       -1.0469178005        0.1085970705
 C          2.4548311503       -2.0709430011        0.6149490238
 C          3.2659459043       -3.1742681821        0.6224965340
 C          4.4884904626       -2.7183841632        0.0946687148
 N          4.4275187291       -1.4412850421       -0.2045852829
 C          3.7051184038        1.2504515116       -0.4230259998
 H          3.8990229310        3.3326514575       -0.8784048126
 H          1.4874933240        3.7832104398       -0.5994409870
 H         -0.3747040809        4.0403314963        0.4264988121
 H         -2.7691638526        4.3110547317        0.6871573375
 H         -4.3035008963        2.3799885896        0.5273410490
 H         -0.0760473657       -0.8079432599       -0.3220010039
 H         -1.5486895409       -3.2281779120       -0.5537390177
 H         -3.8641680027       -4.0905146420       -0.4637649131
 H         -5.7540147997       -2.5873982601       -0.0739076729
 H         -5.4018179676       -0.1632132738        0.2451146230
 H          1.4481181928       -1.9240317545        0.9463582076
 H          3.0273365175       -4.1629668518        0.9561697234
 H          5.3917571449       -3.2706592655       -0.0714577405
 H          4.7432157154        0.9892380521       -0.5352662267
  38
  -61.4700711997000       0.177307917618697      !
 C          3.2849073243        2.6060239336        0.4757142945
 C          1.9380440440        2.8841471048        0.3304322868
 C          1.0560355576        1.8300932203        0.0616804684
 C         -0.3880909654        1.9773668102       -0.0869592541
 C         -1.0166633554        3.2090087332       -0.2647884869
 C         -2.3953661934        3.3230415845       -0.3799042354
 C         -3.2169724657        2.2119710017       -0.3037934268
 C         -2.6320238424        0.9670387868       -0.1311722080
 C         -1.2196481050        0.8458567803       -0.0477821782
 N         -0.8914508592       -0.4657639479        0.1041834833
 C         -2.0340498068       -1.2170888888        0.1344213999
 C         -2.1855144917       -2.5871531731        0.2930138182
 C         -3.4702004666       -3.0941006996        0.3102671882
 C         -4.5814046652       -2.2634570586        0.1682513784
 C         -4.4378884885       -0.8996945223        0.0073434131
 C         -3.1560551101       -0.3646452143       -0.0073993351
 N          1.5142007496        0.5858326160       -0.0483418188
 C          2.7983930897        0.3234750653        0.0841695208
 N          3.1112399090       -1.0295041003       -0.0618565306
 C          4.3272136589       -1.6185250768       -0.1920956582
 C          4.1048946704       -2.9604156967       -0.3571656037
 C          2.7051014264       -3.0947971389       -0.3100510423
 N          2.1248183260       -1.9309993374       -0.1348009595
 C          3.7492064561        1.3046038165        0.3513863836
 H          3.9811513632        3.4024529568        0.6951563714
 H          1.5792332134        3.8937334199        0.4423952249
 H         -0.4195307589        4.1054593222       -0.3322529638
 H         -2.8301806726        4.3005796174       -0.5269181254
 H         -4.2892106269        2.3107706596       -0.3809895873
 H          0.0665725350       -0.7983940378        0.1088017650
 H         -1.3234192939       -3.2271812124        0.4027843192
 H         -3.6212354040       -4.1562653529        0.4370668890
 H         -5.5694120744       -2.6994557066        0.1861482084
 H         -5.3018488378       -0.2609573026       -0.1007559951
 H          5.2408216844       -1.0611915978       -0.1733723493
 H          4.8323621590       -3.7335435750       -0.4934932252
 H          2.1175518767       -3.9871007270       -0.3972984071
 H          4.7941220856        1.0735616959        0.4741024513
