  75
       -117.99598726
 N         -7.3744320597        2.5885837193        2.0273588026
 C         -6.2802363999        2.5839550254        1.6324403047
 C         -4.9813048893        2.5715265965        1.1725082926
 C         -3.9848066554        1.7679045229        1.8185181281
 C         -2.7120228802        1.7429850270        1.3552128776
 C         -2.3255243634        2.5278899319        0.2245728612
 N         -1.0445525687        2.4412836639       -0.2730336987
 C         -0.4118191073        3.5532760034       -0.8197615279
 C          0.4623436082        3.4038654813       -1.9034990443
 C          1.0844033227        4.5066403859       -2.4477361501
 C          0.8430681998        5.7737424097       -1.9326429761
 C         -0.0316289703        5.9289262650       -0.8656219337
 C         -0.6572583669        4.8332172529       -0.3092802535
 C         -0.3807794325        1.2222151360       -0.2198569477
 C         -1.0902363249        0.0295859143       -0.4382958257
 C         -0.4471062152       -1.1891431591       -0.3236872580
 N         -1.1509168697       -2.3743364662       -0.5495190074
 C         -0.7231671286       -3.4350464756       -1.3261251426
 C          0.4266637862       -3.5674753562       -2.0921537385
 C          0.5981041391       -4.7401063838       -2.8040345845
 C         -0.3526210729       -5.7569313089       -2.7703471328
 C         -1.5138496567       -5.6188327519       -2.0342994554
 C         -1.7072159164       -4.4505249010       -1.3111608606
 C         -2.7796987922       -3.9693720036       -0.4840104694
 C         -3.9949928329       -4.5117650787       -0.0902567699
 C         -4.8114582626       -3.7710174936        0.7427327801
 C         -4.4199540637       -2.5131657547        1.1940447032
 C         -3.2130215256       -1.9543352707        0.8175320109
 C         -2.4001573838       -2.6820846413       -0.0400270131
 C          0.9126771307       -1.2410391896        0.0073982956
 C          1.6211859991       -0.0497327187        0.2169470247
 N          2.9788910700       -0.1012349761        0.5408918113
 C          3.9773379771        0.6603453217       -0.0384584779
 C          3.9022160438        1.5854244298       -1.0698320005
 C          5.0741844106        2.1914009991       -1.4821109520
 C          6.2982202809        1.8829541201       -0.8938968541
 C          6.3835739078        0.9447198167        0.1163296409
 C          5.2193707183        0.3240959359        0.5477558699
 C          4.9463910781       -0.6819264544        1.5368014830
 C          5.7441125714       -1.3740393541        2.4374163506
 C          5.1445873166       -2.2772838008        3.2936260516
 C          3.7668424037       -2.4797359089        3.2707357865
 C          2.9523070431       -1.8013605038        2.3834738564
 C          3.5522801514       -0.9148812690        1.5003763359
 C          0.9824627402        1.1713865306        0.1108611310
 C         -3.3087164902        3.3528412490       -0.4026019134
 C         -4.5877466148        3.3676211857        0.0449160027
 H         -4.2711909186        1.2013254310        2.6918399986
 H         -1.9474802543        1.1776561223        1.8684816355
 H          0.6193785119        2.4196098916       -2.3201658121
 H          1.7539399779        4.3826157100       -3.2855436510
 H          1.3310482117        6.6342932917       -2.3624620602
 H         -0.2193735842        6.9115023116       -0.4601969710
 H         -1.3194170728        4.9442767926        0.5363267691
 H         -2.1238583575        0.0761645834       -0.7402147530
 H          1.1600314358       -2.7774314921       -2.1483649027
 H          1.4869874257       -4.8665872120       -3.4036846887
 H         -0.1817486233       -6.6585843885       -3.3385929510
 H         -2.2606836753       -6.3978272486       -2.0236065296
 H         -4.2909547244       -5.4929522895       -0.4285800633
 H         -5.7633797416       -4.1713437827        1.0566258716
 H         -5.0723622490       -1.9597304549        1.8527307105
 H         -2.9212372293       -0.9847715112        1.1866850754
 H          1.4127677700       -2.1900482753        0.0983914566
 H          2.9634984207        1.8241589342       -1.5450137162
 H          5.0385296541        2.9187532043       -2.2793881676
 H          7.1911209553        2.3801431366       -1.2413597903
 H          7.3337900304        0.6937361764        0.5622577002
 H          6.8093673607       -1.2032187146        2.4674169774
 H          5.7467723460       -2.8267972509        4.0010713322
 H          3.3228736051       -3.1772558347        3.9650405505
 H          1.8830774225       -1.9494136707        2.3927031949
 H          1.5156110799        2.0850952498        0.3199437979
 H         -3.0222088560        3.9255869704       -1.2724557809
 H         -5.3394844145        3.9688717150       -0.4433068240
