  95
  -148.124531613600       0.361856847794162      !
 C         -4.6899844019        4.5722566282        2.1817908623
 C         -5.1719182430        3.2817719944        2.4465827012
 C         -4.8813670021        2.2469150533        1.6019209988
 C         -4.0943867444        2.4606770241        0.4516753193
 C         -3.7723324722        1.4190716633       -0.4608750887
 N         -4.2213939143        0.1069161653       -0.2171622344
 C         -3.3945261077       -0.9634727799        0.0595513638
 C         -1.9568794625       -0.8619031882        0.1682038473
 C         -1.1699686614       -1.9240585028       -0.2921531475
 C          0.2012814507       -1.8424008771       -0.2761879808
 C          0.8526763804       -0.6917506293        0.1974764493
 C          2.2939300414       -0.5592454592        0.1427641780
 C          3.1343407554       -1.5922294439        0.6669834526
 C          2.6092424112       -2.6834105543        1.3659966584
 C          3.4298873589       -3.6745307838        1.8941705402
 C          4.8009773626       -3.5687551961        1.7787257680
 C          5.3573991692       -2.4628185352        1.1481516516
 C          4.5523838334       -1.4688890801        0.5802497449
 C          5.1117147931       -0.2876673666        0.0141166932
 N          6.4992481062       -0.1474880331       -0.0414247781
 C          7.3696463396       -0.9528072329       -0.7467748838
 C          7.0891496695       -2.0321578487       -1.5731774708
 C          8.1514416783       -2.6535737421       -2.2007508504
 C          9.4606278780       -2.2113592315       -2.0214039483
 C          9.7429699223       -1.1260303328       -1.2135373740
 C          8.6930781013       -0.4864876639       -0.5703708794
 C          8.6083453292        0.6542280070        0.3015976050
 C          9.5488802847        1.5100608787        0.8565293490
 C          9.1119412747        2.5192623643        1.6936810724
 C          7.7589782384        2.6739049873        1.9891452177
 C          6.8039152594        1.8334993753        1.4508367255
 C          7.2362962373        0.8302776275        0.5946303455
 C          4.2886432743        0.7588469151       -0.4925475606
 C          4.8366790939        1.8806331179       -1.1255630207
 C          4.0275185642        2.8572071806       -1.6922748445
 C          2.6564618225        2.7031037030       -1.6779966594
 C          2.0890490712        1.5798808657       -1.0857679393
 C          2.8710703150        0.6113318884       -0.4481138276
 C          0.0545361654        0.3411200934        0.7149231054
 C         -1.3165208356        0.2575902457        0.7104906803
 N         -4.0679469580       -2.0821142016        0.1967407522
 C         -5.3723751770       -1.7574997578        0.0184521557
 C         -6.5088012626       -2.6083369871        0.1154196592
 C         -6.3733240474       -3.9628188308        0.4372652358
 C         -7.4831981780       -4.7608324458        0.5606394098
 C         -8.7473339043       -4.2083143305        0.3666610542
 C         -8.8918899563       -2.8788737043        0.0439115801
 C         -7.7821989205       -2.0327319915       -0.1005337215
 C         -7.9017162966       -0.6326623252       -0.4714048297
 C         -9.1426297008       -0.0516308557       -0.7663383513
 C         -9.2590461338        1.2625613084       -1.1542998518
 C         -8.1240636290        2.0570338486       -1.2831906660
 C         -6.8894416823        1.5289604205       -0.9984029372
 C         -6.7528156932        0.1993919380       -0.5737787974
 C         -5.4994389683       -0.3943694690       -0.2613857819
 C         -2.9768923709        1.6620118821       -1.5532335463
 C         -2.4756582477        2.9477578916       -1.7928705829
 C         -2.7777342331        3.9754138414       -0.9442698802
 C         -3.5906088149        3.7617103261        0.1894841812
 C         -3.9138442808        4.8056348757        1.0813188485
 H         -4.9341146364        5.3782428794        2.8575831043
 H         -5.7761200230        3.1096716141        3.3246241855
 H         -5.2540290031        1.2552366851        1.8105341761
 H         -1.6672285390       -2.7963915129       -0.6867049336
 H          0.7923205134       -2.6461702770       -0.6893447199
 H          1.5444171843       -2.7500708740        1.5216089308
 H          2.9863802331       -4.5156322156        2.4055061286
 H          5.4476834647       -4.3291028637        2.1901170369
 H          6.4313005098       -2.3704140798        1.1078056069
 H          6.0751175714       -2.3731833503       -1.7149576442
 H          7.9631485355       -3.4985974825       -2.8459748428
 H         10.2641253912       -2.7239128373       -2.5285007630
 H         10.7566427068       -0.7769357148       -1.0876348809
 H         10.5988488624        1.3849105848        0.6398208540
 H          9.8279006026        3.1978871948        2.1322460002
 H          7.4508530335        3.4661636275        2.6549365970
 H          5.7564591928        1.9516939437        1.6821571275
 H          5.9077044672        1.9917762917       -1.1862797581
 H          4.4793307367        3.7214171864       -2.1555947580
 H          2.0170295307        3.4425505048       -2.1367341494
 H          1.0201631716        1.4485466453       -1.1404904306
 H          0.5359932167        1.1996873032        1.1594853850
 H         -1.8950583136        1.0530221580        1.1541409840
 H         -5.3767680370       -4.3471195333        0.5893901770
 H         -7.3830199854       -5.8063635048        0.8112609146
 H         -9.6248018596       -4.8298373649        0.4711085893
 H         -9.8902884190       -2.4955604526       -0.0941979147
 H        -10.0412658081       -0.6430756469       -0.6998190116
 H        -10.2329754207        1.6746232417       -1.3732815377
 H         -8.2121677070        3.0824458511       -1.6101034345
 H         -6.0104357350        2.1406449824       -1.1200851531
 H         -2.7347686715        0.8524666196       -2.2258494981
 H         -1.8504009474        3.1144468396       -2.6568770927
 H         -2.3951089037        4.9689359778       -1.1259400645
 H         -3.5334059091        5.7957081435        0.8756487565
  95
  -148.124229034900       0.262712812022593      !
 C         -4.5743358004        4.8515635106        1.4550497674
 C         -5.0713289885        3.6264529173        1.9246364995
 C         -4.8230865245        2.4698571889        1.2393725945
 C         -4.0641573216        2.4906878230        0.0510839911
 C         -3.7787446026        1.3151303054       -0.6955991697
 N         -4.2312761915        0.0618226667       -0.2388120523
 C         -3.4024630992       -0.9541976929        0.1936576292
 C         -1.9663397049       -0.8292372190        0.2957438495
 C         -1.1689228085       -1.9453552083        0.0173040571
 C          0.2018306662       -1.8529988421        0.0331333020
 C          0.8429101636       -0.6374843131        0.3223300205
 C          2.2849454202       -0.5060829441        0.2604634803
 C          3.1239503023       -1.4363551746        0.9521433375
 C          2.6003344214       -2.4262893309        1.7890406422
 C          3.4201821285       -3.3712183225        2.3987056288
 C          4.7823893752       -3.3476438494        2.1782978358
 C          5.3396479661       -2.3358245294        1.4052041062
 C          4.5417754482       -1.3414849400        0.8286577465
 C          5.1030319754       -0.2533217882        0.1019396688
 N          6.4911474536       -0.1347381889        0.0078541497
 C          7.2220377442       -0.1395293241       -1.1631824210
 C          6.7839286898       -0.3130336969       -2.4690207142
 C          7.7345757881       -0.3112939239       -3.4712147257
 C          9.0895001781       -0.1506057341       -3.1875399104
 C          9.5325417075        0.0011391795       -1.8873187368
 C          8.5962537009        0.0045252094       -0.8630961562
 C          8.6894691630        0.1145394778        0.5676101728
 C          9.7467623389        0.2981904335        1.4473262869
 C          9.4743696877        0.3854849766        2.7993291217
 C          8.1671546464        0.3057930100        3.2757413931
 C          7.0979905863        0.1251349222        2.4199348296
 C          7.3684464268        0.0154465191        1.0626599576
 C          4.2797031819        0.7173416780       -0.5368462958
 C          4.8220661854        1.8369704769       -1.1774157234
 C          4.0147147657        2.7348546948       -1.8654665377
 C          2.6541890894        2.5157066603       -1.9371519490
 C          2.0856041511        1.4398442001       -1.2620689465
 C          2.8626402286        0.5590368632       -0.5029684271
 C          0.0343462166        0.4588111795        0.6609079517
 C         -1.3361720130        0.3659743239        0.6587551979
 N         -4.0734837759       -2.0436404385        0.4883413466
 C         -5.3777162841       -1.7531684839        0.2580598615
 C         -6.5113093184       -2.5893365325        0.4599098907
 C         -6.3723559170       -3.8887474997        0.9589415653
 C         -7.4788051197       -4.6734496576        1.1691471995
 C         -8.7432138290       -4.1628396947        0.8833830899
 C         -8.8912866838       -2.8876238461        0.3888388923
 C         -7.7852703147       -2.0567404793        0.1545996881
 C         -7.9092116161       -0.7161142085       -0.3926993583
 C         -9.1524619369       -0.1790055635       -0.7539333005
 C         -9.2732022828        1.0746957898       -1.3060968825
 C         -8.1403706397        1.8479440578       -1.5400697609
 C         -6.9037116529        1.3628113311       -1.1941974817
 C         -6.7625633986        0.0986701447       -0.6033702047
 C         -5.5076844809       -0.4443224515       -0.2146154595
 C         -3.0098873614        1.3727011313       -1.8315473079
 C         -2.5009013362        2.5976355141       -2.2816501228
 C         -2.7655152439        3.7488779848       -1.5944792768
 C         -3.5482752813        3.7263946913       -0.4202765456
 C         -3.8281343295        4.8998863887        0.3108142163
 H         -4.7832890340        5.7551662152        2.0080314893
 H         -5.6532927310        3.6023211024        2.8337402752
 H         -5.2075984778        1.5288244002        1.6036724737
 H         -1.6570692911       -2.8729620751       -0.2379849361
 H          0.8009496354       -2.7087266731       -0.2406906123
 H          1.5388467627       -2.4571959627        1.9753248633
 H          2.9812683718       -4.1250665051        3.0348285360
 H          5.4234922667       -4.0960299643        2.6192115743
 H          6.4078457319       -2.3182598886        1.2558230061
 H          5.7355064153       -0.4395384123       -2.6909844461
 H          7.4211901331       -0.4396863979       -4.4965542124
 H          9.8017077572       -0.1520627055       -3.9989457529
 H         10.5839439710        0.1103434221       -1.6684141119
 H         10.7584635976        0.3751475391        1.0787749981
 H         10.2835428030        0.5237507154        3.5005515030
 H          7.9858322113        0.3886813613        4.3369518469
 H          6.0865120498        0.0658057632        2.7912940083
 H          5.8865390485        2.0086377624       -1.1447114356
 H          4.4617735882        3.5851144577       -2.3581522750
 H          2.0215242563        3.1800504272       -2.5067802742
 H          1.0210110290        1.2846160294       -1.3345877321
 H          0.5063970523        1.3802323886        0.9687571965
 H         -1.9216313070        1.2174976098        0.9686296892
 H         -5.3758312781       -4.2421031156        1.1735700384
 H         -7.3756780800       -5.6767008028        1.5549792297
 H         -9.6179903946       -4.7744120676        1.0506248779
 H         -9.8897352651       -2.5358859503        0.1836273462
 H        -10.0501055032       -0.7570523792       -0.6062035981
 H        -10.2490756265        1.4546490481       -1.5699576974
 H         -8.2318779891        2.8231909298       -1.9946603139
 H         -6.0267549143        1.9566097797       -1.3938063656
 H         -2.7947556197        0.4642166422       -2.3746249189
 H         -1.8988994464        2.6183325753       -3.1774627479
 H         -2.3757033962        4.6959100562       -1.9376131775
 H         -3.4376475992        5.8393601062       -0.0529455916
  95
  -148.123945874900       0.194692816159355      !
 C         -1.3072321399        3.7878794390        0.7477640432
 C         -1.8602808898        2.7182337510        1.4681972896
 C         -2.7411782398        1.8616536188        0.8702847233
 C         -3.1002252248        2.0303937612       -0.4829825285
 C         -3.9665996660        1.1352637051       -1.1663855329
 N         -4.4056362920       -0.0348510720       -0.5186437881
 C         -3.5759478744       -1.0541580108       -0.0879569695
 C         -2.1322296381       -1.0121293697       -0.1638092877
 C         -1.4365845609       -0.3842592704       -1.2018673985
 C         -0.0697633190       -0.2570509614       -1.1473143553
 C          0.6704652923       -0.7791730369       -0.0765319779
 C          2.1040057490       -0.5728272221        0.0040904905
 C          2.9833534304       -1.6858389098        0.1850641435
 C          2.5168396337       -3.0036806761        0.2040573686
 C          3.3733014765       -4.0743049271        0.4436591751
 C          4.7149863157       -3.8469335564        0.6723201563
 C          5.2194076947       -2.5534010415        0.5978897616
 C          4.3873290293       -1.4669622198        0.3080268014
 C          4.8989955768       -0.1460076801        0.1603105841
 N          6.2784214553        0.0614763277        0.2300629135
 C          7.2211785496       -0.4881525336       -0.6147997602
 C          7.0351293691       -1.3008205023       -1.7247510199
 C          8.1566780831       -1.6903266326       -2.4307942172
 C          9.4331647617       -1.2785272565       -2.0523159060
 C          9.6215547222       -0.4531933544       -0.9599846195
 C          8.5102669881       -0.0493146876       -0.2336751507
 C          8.3272229685        0.7990987596        0.9128156476
 C          9.1983635839        1.4921016648        1.7412553219
 C          8.6739102232        2.2121504362        2.7978504278
 C          7.3018450138        2.2365939802        3.0405451724
 C          6.4146917174        1.5540470426        2.2310453720
 C          6.9350111446        0.8452291286        1.1568315388
 C          4.0373040889        0.9661595542       -0.0596838021
 C          4.5365215519        2.2557349584       -0.2723842344
 C          3.6828942389        3.3429200301       -0.4222609793
 C          2.3178095444        3.1574335570       -0.3468883629
 C          1.7955716367        1.8774177322       -0.1850415856
 C          2.6266247251        0.7563554092       -0.0947649740
 C         -0.0266299868       -1.4900014429        0.9122040367
 C         -1.3957248511       -1.5971658981        0.8727942706
 N         -4.2529214061       -2.0424204172        0.4480118785
 C         -5.5601013906       -1.6921958082        0.3637147860
 C         -6.6955887756       -2.4485528638        0.7671514325
 C         -6.5551389329       -3.7233807121        1.3256066002
 C         -7.6635975449       -4.4521101738        1.6782334021
 C         -8.9311418868       -3.9123775789        1.4701213786
 C         -9.0806639048       -2.6571076614        0.9272748909
 C         -7.9726785397       -1.8769393791        0.5638967601
 C         -8.0968871578       -0.5330424755        0.0254369005
 C         -9.3444721196        0.0900453110       -0.1158920182
 C         -9.4683154144        1.3795432663       -0.5772107416
 C         -8.3341391056        2.1171625560       -0.9020028606
 C         -7.0932449446        1.5408768291       -0.7885419084
 C         -6.9477767855        0.2156526885       -0.3523741408
 C         -5.6876300888       -0.4313458475       -0.2249766402
 C         -4.3231800183        1.3627434046       -2.4746420199
 C         -3.8257931421        2.4771976114       -3.1608887211
 C         -2.9549456467        3.3336270898       -2.5461150296
 C         -2.5698320791        3.1321694775       -1.2042432383
 C         -1.6631026299        3.9963598037       -0.5546789573
 H         -0.6064734404        4.4480396679        1.2369859187
 H         -1.5845587556        2.5765497296        2.5024214419
 H         -3.1694994556        1.0476217813        1.4349681868
 H         -1.9653953657       -0.0100335866       -2.0643526689
 H          0.4554330058        0.2232683992       -1.9598805327
 H          1.4724123082       -3.1997896685        0.0219580123
 H          2.9780737595       -5.0789226322        0.4568640489
 H          5.3824023015       -4.6674042056        0.8888383856
 H          6.2732682320       -2.3919969201        0.7624580215
 H          6.0473289493       -1.6191442144       -2.0204641502
 H          8.0417100104       -2.3262062592       -3.2958787925
 H         10.2853008042       -1.6066235453       -2.6284034834
 H         10.6099206215       -0.1235959605       -0.6774200078
 H         10.2627348892        1.4628150191        1.5636662742
 H          9.3348188338        2.7607903866        3.4519271673
 H          6.9242612095        2.7997679151        3.8809396581
 H          5.3527136898        1.5722091537        2.4218864230
 H          5.6022457855        2.4164868272       -0.3178421708
 H          4.0969986061        4.3280335337       -0.5764828230
 H          1.6441762279        3.9976998162       -0.4212510535
 H          0.7256448462        1.7582046194       -0.1224217251
 H          0.5211416958       -1.8994831888        1.7479920277
 H         -1.9326221915       -2.1069813674        1.6575149398
 H         -5.5559376889       -4.1074623300        1.4597843222
 H         -7.5595943256       -5.4367067792        2.1092588324
 H         -9.8072597021       -4.4847862110        1.7384099738
 H        -10.0814861695       -2.2823353009        0.7832378372
 H        -10.2429818016       -0.4424091070        0.1503501909
 H        -10.4472268949        1.8255108180       -0.6728524613
 H         -8.4280827282        3.1390216346       -1.2384333318
 H         -6.2155196054        2.1211893628       -1.0231044588
 H         -4.9855641035        0.6702948786       -2.9737758861
 H         -4.1223562264        2.6373363633       -4.1863303699
 H         -2.5473737501        4.1787341099       -3.0809407156
 H         -1.2549432718        4.8272322296       -1.1122139666
  95
  -148.123266176600       9.483796273654886E-002 !
 C         -1.2905590701        3.6809438780        1.1102450280
 C         -1.9057443549        2.6009757242        1.7617883069
 C         -2.7798126904        1.7930586404        1.0906747400
 C         -3.0665831378        2.0198624080       -0.2715494798
 C         -3.9144998948        1.1705307585       -1.0319682213
 N         -4.3943162373       -0.0220963706       -0.4594110097
 C         -3.5871005094       -1.0525626229       -0.0136140808
 C         -2.1400337074       -0.9879924673       -0.0119365412
 C         -1.4156860239       -0.3987727860       -1.0524271017
 C         -0.0528715519       -0.2587109578       -0.9596233661
 C          0.6549148357       -0.7191326532        0.1612340549
 C          2.0880164577       -0.5136881887        0.2477574721
 C          2.9677235912       -1.6082337624        0.5182053792
 C          2.5032018146       -2.9153514564        0.6935451425
 C          3.3658803746       -3.9548041812        1.0292521581
 C          4.7131921455       -3.7079306942        1.1951957499
 C          5.2156613960       -2.4337381586        0.9557313677
 C          4.3757424925       -1.3847033542        0.5685288342
 C          4.8897549982       -0.0965403532        0.2403533244
 N          6.2728087001        0.0825544629        0.1760864328
 C          7.1276461204       -0.5996800172       -0.6670054879
 C          6.8295748404       -1.5419289472       -1.6418090263
 C          7.8771926081       -2.0527708144       -2.3831866259
 C          9.1894837181       -1.6343544834       -2.1714798942
 C          9.4885187554       -0.6815018656       -1.2162403633
 C          8.4531086054       -0.1549691593       -0.4570554834
 C          8.3878035120        0.8382426514        0.5807331974
 C          9.3423614250        1.6047308472        1.2338222787
 C          8.9281637438        2.4695436635        2.2289994651
 C          7.5840525638        2.5650943359        2.5844477824
 C          6.6155197553        1.8113632872        1.9503983451
 C          7.0236879205        0.9568670024        0.9350680227
 C          4.0248351059        1.0000575361       -0.0356576555
 C          4.5136285004        2.2593799142       -0.4001712058
 C          3.6558853866        3.3373597245       -0.5892803925
 C          2.2984754115        3.1742801157       -0.4040595769
 C          1.7826434081        1.9168129766       -0.1033542694
 C          2.6139493826        0.8004179083        0.0275408728
 C         -0.0727335939       -1.3692335151        1.1690288518
 C         -1.4388823661       -1.5001205056        1.0837190816
 N         -4.2866729695       -2.0690990946        0.4278280745
 C         -5.5899096398       -1.7279441353        0.2598189840
 C         -6.7420583227       -2.5181365281        0.5282290379
 C         -6.6273059086       -3.8216828629        1.0227315384
 C         -7.7486271381       -4.5846381681        1.2337042786
 C         -9.0031309541       -4.0505081938        0.9467530092
 C         -9.1280858628       -2.7672111982        0.4670451491
 C         -8.0072316436       -1.9524643396        0.2477455799
 C         -8.1089655065       -0.5820270486       -0.2240436710
 C         -9.3505820268        0.0364228449       -0.4258913505
 C         -9.4560866908        1.3475063113       -0.8269861981
 C         -8.3104462182        2.1115771607       -1.0264329921
 C         -7.0741004153        1.5417457210       -0.8484784337
 C         -6.9449634397        0.1967685288       -0.4720974778
 C         -5.6895172837       -0.4436671748       -0.2803404095
 C         -4.2057795486        1.4608612303       -2.3439877814
 C         -3.6584955467        2.5939760001       -2.9576049651
 C         -2.7994821647        3.4043842072       -2.2685102562
 C         -2.4799491694        3.1376487488       -0.9210452041
 C         -1.5841655594        3.9518736479       -0.1961718955
 H         -0.5927156060        4.2998822604        1.6544451118
 H         -1.6843163903        2.4129115272        2.8016697956
 H         -3.2588745025        0.9736006855        1.6041730681
 H         -1.9212207660       -0.0673929948       -1.9462293954
 H          0.4963532932        0.1843159973       -1.7772995560
 H          1.4556833444       -3.1301427762        0.5580436214
 H          2.9707388773       -4.9502465405        1.1655983302
 H          5.3859869405       -4.5004906087        1.4860332328
 H          6.2744627119       -2.2585792193        1.0666092386
 H          5.8141284467       -1.8659288657       -1.8096898726
 H          7.6744540446       -2.7911112892       -3.1445554033
 H          9.9813123688       -2.0594367840       -2.7697512484
 H         10.5038126972       -0.3479420579       -1.0640337288
 H         10.3857664292        1.5207139931        0.9701924142
 H          9.6549170805        3.0778111081        2.7460569992
 H          7.2935446099        3.2420361318        3.3739441579
 H          5.5755971652        1.8855424537        2.2289430316
 H          5.5741233423        2.4045796497       -0.5333646270
 H          4.0628041849        4.3002427902       -0.8596679045
 H          1.6254360446        4.0125991935       -0.5025452226
 H          0.7182357833        1.8111356573        0.0345496800
 H          0.4446345875       -1.7130945829        2.0523455302
 H         -1.9969728446       -1.9725917380        1.8773317629
 H         -5.6364889646       -4.2004420129        1.2196921092
 H         -7.6642085273       -5.5923163051        1.6125586405
 H         -9.8884011933       -4.6499548753        1.1022615036
 H        -10.1191054190       -2.3981708427        0.2559613465
 H        -10.2594495355       -0.5173313201       -0.2552565741
 H        -10.4307241840        1.7890614781       -0.9731915684
 H         -8.3923012495        3.1488660192       -1.3155620708
 H         -6.1885501185        2.1417594463       -0.9837270658
 H         -4.8539120153        0.8019672501       -2.9036806158
 H         -3.9059187948        2.8044081618       -3.9870571092
 H         -2.3509360987        4.2621179401       -2.7476426578
 H         -1.1336468603        4.7952410065       -0.6995596473
  95
  -148.122909081200       6.499389027483991E-002 !
 C         -4.2055218247        4.8001396971        1.2949492579
 C         -4.8695084317        3.6523988314        1.7532895560
 C         -4.6687989341        2.4459258341        1.1425671998
 C         -3.7920230433        2.3366215006        0.0435211188
 C         -3.5481429347        1.1042175970       -0.6212128885
 N         -4.1505567839       -0.0816541194       -0.1570472946
 C         -3.4450442162       -1.1366844653        0.3874036944
 C         -2.0078306009       -1.0757390067        0.5623254027
 C         -1.2110085545       -2.1675995093        0.2101251086
 C          0.1615700049       -2.0622848272        0.2092452541
 C          0.7925163348       -0.8581323951        0.5529370859
 C          2.2245513994       -0.6689792601        0.4088302316
 C          3.1482260401       -1.5801391089        1.0075648953
 C          2.7243449846       -2.6433309155        1.8101994546
 C          3.6291166578       -3.5600174938        2.3385161947
 C          4.9766038661       -3.4320485789        2.0711470190
 C          5.4345936272       -2.3511247780        1.3251051758
 C          4.5502684947       -1.3904060517        0.8244660496
 C          5.0080158216       -0.2446024279        0.1127348716
 N          6.3802108410       -0.0330055072       -0.0352345657
 C          7.0597566308        0.0468005488       -1.2337596483
 C          6.5819073436       -0.1308058034       -2.5250136330
 C          7.4865963664       -0.0308098355       -3.5640553053
 C          8.8353871628        0.2307210718       -3.3305677700
 C          9.3194892444        0.3872832913       -2.0455958553
 C          8.4298103028        0.2925759341       -0.9849363156
 C          8.5731656181        0.3786523180        0.4433982493
 C          9.6466590645        0.6323829804        1.2851387295
 C          9.4230171502        0.6716405065        2.6484022401
 C          8.1475865411        0.4735991799        3.1737841709
 C          7.0628608285        0.2212453152        2.3564558793
 C          7.2858807716        0.1624756312        0.9876287845
 C          4.0979431589        0.6919125975       -0.4560510996
 C          4.5391568762        1.8582933029       -1.0901025483
 C          3.6440676651        2.7297886955       -1.7007718785
 C          2.2955513195        2.4394563707       -1.6964637572
 C          1.8274120925        1.3133352603       -1.0252525372
 C          2.6963144493        0.4520001941       -0.3476523780
 C         -0.0152347417        0.1975826889        1.0018053259
 C         -1.3839638277        0.0908889612        1.0156539419
 N         -4.2204877447       -2.1508776384        0.6799353699
 C         -5.4778874166       -1.7693690034        0.3330654224
 C         -6.6909229613       -2.4975457412        0.4846822784
 C         -6.7034570462       -3.7735243577        1.0581841238
 C         -7.8864446615       -4.4506541315        1.2193668664
 C         -9.0772534597       -3.8541856567        0.8099331835
 C         -9.0766123764       -2.6016619676        0.2411484381
 C         -7.8880883460       -1.8805264328        0.0520177055
 C         -7.8558095872       -0.5689661587       -0.5726634739
 C         -9.0159327355        0.0441324506       -1.0659209780
 C         -8.9843341792        1.2694535664       -1.6894771934
 C         -7.7750767444        1.9353735188       -1.8642475112
 C         -6.6159529643        1.3730138852       -1.3905044448
 C         -6.6318635274        0.1373789243       -0.7276902888
 C         -5.4621283680       -0.4826893097       -0.2102208810
 C         -2.6637844258        1.0346739104       -1.6689892394
 C         -1.9892987691        2.1817495685       -2.1064670032
 C         -2.2054021836        3.3839590531       -1.4940183390
 C         -3.1074573381        3.4928880955       -0.4141424715
 C         -3.3426339644        4.7213773537        0.2379076087
 H         -4.3795195702        5.7452156944        1.7873321164
 H         -5.5425283164        3.7276992281        2.5941891993
 H         -5.1815727568        1.5647680286        1.4984735988
 H         -1.6932645986       -3.0804296880       -0.1041500965
 H          0.7628453849       -2.8916797910       -0.1325894117
 H          1.6752070823       -2.7544110035        2.0326786263
 H          3.2671179819       -4.3723030568        2.9507111858
 H          5.6835052513       -4.1531401795        2.4529879397
 H          6.4926258312       -2.2539802634        1.1378843991
 H          5.5379609135       -0.3344757750       -2.7074318901
 H          7.1414995802       -0.1593467347       -4.5791101634
 H          9.5108150613        0.3048099473       -4.1695812014
 H         10.3672744093        0.5751387727       -1.8664883626
 H         10.6326822197        0.8008840253        0.8793899800
 H         10.2457285754        0.8649908205        3.3202306308
 H          8.0035597500        0.5206087532        4.2428558039
 H          6.0754640738        0.0709778282        2.7651321953
 H          5.5924314262        2.0898234432       -1.1134404696
 H          4.0148054246        3.6174405615       -2.1909329420
 H          1.5933369580        3.0861497289       -2.2012989442
 H          0.7691392985        1.1066997455       -1.0357948959
 H          0.4564788191        1.1023887597        1.3556694052
 H         -1.9765267023        0.9116735614        1.3895885764
 H         -5.7601768812       -4.1957166813        1.3678778766
 H         -7.8997450427       -5.4359590596        1.6609977082
 H        -10.0118569777       -4.3806006378        0.9387631288
 H        -10.0224083110       -2.1798845623       -0.0595039378
 H         -9.9683064529       -0.4508542954       -0.9670875742
 H         -9.8997178608        1.7106655693       -2.0551768586
 H         -7.7469617645        2.8876715443       -2.3726988568
 H         -5.6778395138        1.8812452721       -1.5434960913
 H         -2.4827039894        0.0848935619       -2.1503243437
 H         -1.2968240118        2.1003717792       -2.9307537768
 H         -1.6850201500        4.2710719225       -1.8238489197
 H         -2.8234025426        5.6004023580       -0.1157607615
  95
  -148.121837187100       2.090567101250069E-002 !
 C         -1.2397251250        3.7491645101        0.9637992635
 C         -1.7954721880        2.6646105813        1.6598482637
 C         -2.6734978467        1.8199620866        1.0411159037
 C         -3.0232035924        2.0123531134       -0.3115566175
 C         -3.8901504070        1.1354959419       -1.0160209264
 N         -4.3602100110       -0.0413938074       -0.4045840365
 C         -3.5735396224       -1.0934324610        0.0267594386
 C         -2.1258204387       -1.0365585923        0.0711805630
 C         -1.3723505669       -0.4574080305       -0.9536992570
 C         -0.0131821313       -0.3160747570       -0.8212772418
 C          0.6612941692       -0.7562115725        0.3289048887
 C          2.0892830653       -0.5283037562        0.4468651835
 C          2.9902830676       -1.5965681698        0.7503677724
 C          2.5552928244       -2.9021838611        0.9976393084
 C          3.4466107294       -3.9117053641        1.3503793459
 C          4.7951060734       -3.6393071280        1.4544704131
 C          5.2669500250       -2.3687640077        1.1442823457
 C          4.3952646733       -1.3487122646        0.7508797949
 C          4.8814396071       -0.0662004722        0.3626011762
 N          6.2567922178        0.1057890974        0.1941882022
 C          7.0277715633       -0.5910076877       -0.7155058088
 C          6.6358273295       -1.5447452667       -1.6444194781
 C          7.6061907172       -2.0650114596       -2.4785175507
 C          8.9324273429       -1.6443268122       -2.4010792624
 C          9.3236611828       -0.6825603000       -1.4890480483
 C          8.3675129390       -0.1474978067       -0.6373462007
 C          8.4019382928        0.8568676375        0.3912584628
 C          9.4157433013        1.6246161229        0.9460200132
 C          9.0990431852        2.4997616962        1.9677294521
 C          7.7939815307        2.6053430946        2.4450862443
 C          6.7676120970        1.8512789502        1.9100098138
 C          7.0766894453        0.9849522597        0.8698358883
 C          3.9953810454        1.0175891288        0.1077289519
 C          4.4535878224        2.2825099570       -0.2764850396
 C          3.5718021114        3.3412500775       -0.4634337930
 C          2.2209094186        3.1532689792       -0.2571186449
 C          1.7355982142        1.8901487444        0.0695334287
 C          2.5904977753        0.7925148870        0.2026018266
 C         -0.0953309476       -1.3936202272        1.3226339070
 C         -1.4580430139       -1.5335090298        1.1936679659
 N         -4.2918028127       -2.1181513870        0.4149742689
 C         -5.5887231404       -1.7623354331        0.2222828692
 C         -6.7551426781       -2.5601705744        0.3906868066
 C         -6.6697169062       -3.8996536641        0.7843551242
 C         -7.8006260501       -4.6745581497        0.8570897089
 C         -9.0348988419       -4.1177461576        0.5287755464
 C         -9.1330863618       -2.7968665275        0.1567277837
 C         -8.0035576441       -1.9683494405        0.0880580139
 C         -8.0819144796       -0.5592293517       -0.2575168706
 C         -9.3118358717        0.0990407346       -0.3919959972
 C         -9.3912797527        1.4447287521       -0.6645719210
 C         -8.2309872147        2.2007885610       -0.7997050375
 C         -7.0054289310        1.5929198657       -0.6826209106
 C         -6.9038803874        0.2170644843       -0.4309369606
 C         -5.6625059099       -0.4580802474       -0.2694045428
 C         -4.2411506902        1.3934904701       -2.3206708939
 C         -3.7404679864        2.5206816462       -2.9818133902
 C         -2.8708023027        3.3623271641       -2.3456526434
 C         -2.4901013915        3.1293094095       -1.0078566185
 C         -1.5897141250        3.9827999969       -0.3358150918
 H         -0.5420860060        4.4002300391        1.4694326945
 H         -1.5242313446        2.5026054140        2.6923032892
 H         -3.1074444335        0.9973921578        1.5882126125
 H         -1.8537329737       -0.1340497626       -1.8640494354
 H          0.5605007743        0.1188620247       -1.6263417908
 H          1.5087963826       -3.1415946705        0.9038475577
 H          3.0729786757       -4.9055982846        1.5459715535
 H          5.4909977050       -4.4092030556        1.7517308083
 H          6.3262448961       -2.1722042996        1.2052735426
 H          5.6086303345       -1.8687233914       -1.7090935994
 H          7.3302109460       -2.8115385445       -3.2082359705
 H          9.6614782440       -2.0746202421       -3.0710942366
 H         10.3488759034       -0.3480914773       -1.4410726589
 H         10.4299213392        1.5332611006        0.5877085355
 H          9.8734563446        3.1078121847        2.4105991430
 H          7.5810307134        3.2901579117        3.2523188712
 H          5.7579080331        1.9328684637        2.2823954749
 H          5.5084311680        2.4470247574       -0.4292946770
 H          3.9549685496        4.3087491431       -0.7514490993
 H          1.5286416598        3.9749165395       -0.3604374044
 H          0.6755501718        1.7648512774        0.2227859037
 H          0.3909152767       -1.7156123626        2.2314426781
 H         -2.0391949464       -1.9960245867        1.9767708694
 H         -5.6924745950       -4.2980693688        1.0084413439
 H         -7.7377215134       -5.7110215640        1.1534900015
 H         -9.9246490127       -4.7295336972        0.5640533598
 H        -10.1067689446       -2.4095164167       -0.0983728532
 H        -10.2303209857       -0.4494445293       -0.2595257932
 H        -10.3569729664        1.9195897486       -0.7552902449
 H         -8.2931064237        3.2628116057       -0.9854604994
 H         -6.1079804827        2.1858460119       -0.7605406113
 H         -4.9075278464        0.7162412889       -2.8350159414
 H         -4.0369826376        2.7050890684       -4.0032303268
 H         -2.4631050263        4.2206978082       -2.8589063064
 H         -1.1835676815        4.8272255092       -0.8742001338
