  95
       -148.71791908
 C         -1.1315017938        3.6513019989        1.4155334611
 C         -1.7155053287        2.4961501093        1.9573755630
 C         -2.6430153954        1.7890650149        1.2453609238
 C         -3.0202233830        2.2006713683       -0.0496350499
 C         -3.9364781898        1.4697133532       -0.8528035662
 N         -4.4122189360        0.2237171083       -0.4026311341
 C         -3.6183409936       -0.8853837928       -0.1734725748
 C         -2.1758363003       -0.8864771270       -0.2784551506
 C         -1.4740935156       -0.1173439577       -1.2121032687
 C         -0.1023275165       -0.0539519936       -1.1721307986
 C          0.6353524761       -0.7797357086       -0.2254571558
 C          2.0776063344       -0.6454601890       -0.1480574678
 C          2.9123900437       -1.8059663058       -0.1821241154
 C          2.3910248684       -3.0886944140       -0.3757467912
 C          3.2058518523       -4.2166293147       -0.3442500208
 C          4.5600469058       -4.0834716613       -0.1150632220
 C          5.1171992385       -2.8166404042        0.0188286095
 C          4.3264440297       -1.6654677115       -0.0601168513
 C          4.8906023261       -0.3593709375        0.0060667284
 N          6.2786415795       -0.2200351452        0.0743552562
 C          7.1811172627       -0.6527017285       -0.8759147214
 C          6.9398486137       -1.2555807414       -2.1028465282
 C          8.0303274984       -1.5612438341       -2.8937380603
 C          9.3300343101       -1.2696652233       -2.4838759908
 C          9.5738423220       -0.6513899890       -1.2722044781
 C          8.4946055904       -0.3354412694       -0.4591679884
 C          8.3693821081        0.3105504576        0.8194114613
 C          9.2846051564        0.8175024705        1.7309034914
 C          8.8112064503        1.3656263572        2.9079203343
 C          7.4462540773        1.4008432185        3.1867140876
 C          6.5158369990        0.9015573511        2.2960744842
 C          6.9852466644        0.3676653697        1.1037220114
 C          4.0726796638        0.8063063345        0.0010944705
 C          4.6218424909        2.0931149207       -0.0017558528
 C          3.8122497883        3.2218830404        0.0578779976
 C          2.4422202505        3.0788058462        0.1359194498
 C          1.8695008212        1.8109994285        0.0909009445
 C          2.6539803526        0.6599508858       -0.0326261846
 C         -0.0722820542       -1.6220400111        0.6455162025
 C         -1.4451844938       -1.6682044297        0.6239329809
 N         -4.3261961301       -1.9240727110        0.2037339859
 C         -5.6187654701       -1.5146373642        0.2142214257
 C         -6.7773528928       -2.2847154569        0.5122543768
 C         -6.6803508808       -3.6407729097        0.8416222105
 C         -7.8117347806       -4.3759911422        1.0936091268
 C         -9.0590490155       -3.7603121202        1.0133776606
 C         -9.1656440873       -2.4258330395        0.6962896876
 C         -8.0327623262       -1.6381151230        0.4424842830
 C         -8.1102411616       -0.2181074350        0.1441541220
 C         -9.3328262278        0.4674329755        0.1433852414
 C         -9.4107760241        1.8206643523       -0.0882303306
 C         -8.2527980228        2.5588810516       -0.3119513397
 C         -7.0354468082        1.9244448636       -0.3304901881
 C         -6.9378830138        0.5395169970       -0.1302941842
 C         -5.7040249264       -0.1676605341       -0.1476459974
 C         -4.3078847768        1.9313469287       -2.0935223845
 C         -3.7769402566        3.1268971954       -2.5926154568
 C         -2.8591556512        3.8313332256       -1.8637568966
 C         -2.4575084906        3.3884667301       -0.5862333706
 C         -1.5028921754        4.0932084121        0.1772873046
 H         -0.3943032677        4.1905429678        1.9917016977
 H         -1.4264431973        2.1690040464        2.9448649007
 H         -3.0945746722        0.9074360435        1.6740786474
 H         -2.0028825115        0.4190543931       -1.9842597155
 H          0.4271908407        0.5378605634       -1.9043670086
 H          1.3359732222       -3.2104648541       -0.5614490651
 H          2.7688281666       -5.1927401063       -0.4920812454
 H          5.1961685414       -4.9539201392       -0.0588045336
 H          6.1798741029       -2.7263972680        0.1811072083
 H          5.9340403042       -1.4803932119       -2.4227448062
 H          7.8721842128       -2.0347311889       -3.8511994464
 H         10.1564522095       -1.5267720945       -3.1293133765
 H         10.5804425950       -0.4132493110       -0.9633529593
 H         10.3432249035        0.7781901642        1.5233929457
 H          9.5070114535        1.7683832294        3.6285205476
 H          7.1088323816        1.8259001105        4.1202399520
 H          5.4593891362        0.9275569129        2.5146824346
 H          5.6923551579        2.2182187050       -0.0467825360
 H          4.2646292712        4.2022105856        0.0629894055
 H          1.8034224636        3.9446432502        0.2232236214
 H          0.7968718749        1.7240130933        0.1600158574
 H          0.4734503460       -2.1893049469        1.3848789838
 H         -1.9881666835       -2.2838385987        1.3240201234
 H         -5.6959142057       -4.0802498553        0.8824869074
 H         -7.7412886266       -5.4231029440        1.3478221882
 H         -9.9533335561       -4.3361199976        1.2028856747
 H        -10.1522806951       -1.9937706441        0.6441697189
 H        -10.2478283130       -0.0678300715        0.3382619315
 H        -10.3715971671        2.3136899959       -0.0811220103
 H         -8.3098249950        3.6260952454       -0.4668985305
 H         -6.1385823217        2.5021980477       -0.4854719577
 H         -5.0083030256        1.3605415679       -2.6859477138
 H         -4.0858740973        3.4715085742       -3.5677705920
 H         -2.4264430739        4.7392403574       -2.2572333333
 H         -1.0706254929        4.9909672793       -0.2409983250
  95
       -148.71751639
 C         -1.1103026020        3.4663182949        1.7886867191
 C         -1.7564556281        2.3104961027        2.2532877509
 C         -2.6778976790        1.6703216900        1.4733902209
 C         -2.9837929636        2.1496811143        0.1826638050
 C         -3.8827601032        1.4839206019       -0.6932270341
 N         -4.4001264182        0.2265156820       -0.3303635398
 C         -3.6277598688       -0.8970858373       -0.0997938769
 C         -2.1795500880       -0.8883869486       -0.1278511194
 C         -1.4533266382       -0.1488863462       -1.0660506536
 C         -0.0841523386       -0.0792490432       -0.9885553796
 C          0.6273010913       -0.7605497427        0.0109116986
 C          2.0693066813       -0.6281616401        0.0919503154
 C          2.9076486437       -1.7858543536        0.1365267577
 C          2.3922752812       -3.0847377351        0.0878088144
 C          3.2173197680       -4.1994073941        0.2069247728
 C          4.5770688513       -4.0373918387        0.3759401351
 C          5.1275939152       -2.7607350942        0.3546125355
 C          4.3245911303       -1.6282179957        0.1859260329
 C          4.8853465712       -0.3222674470        0.0795378829
 N          6.2730384748       -0.1867030544        0.0089956627
 C          7.0802092509       -0.7374050547       -0.9668104311
 C          6.7219920096       -1.4765284002       -2.0858718953
 C          7.7311191410       -1.8843683164       -2.9364200604
 C          9.0640927302       -1.5606797676       -2.6906415879
 C          9.4233030875       -0.8076425831       -1.5889449218
 C          8.4274105957       -0.3880509196       -0.7184200617
 C          8.4261465286        0.4034818552        0.4820856945
 C          9.4258580428        1.0031572277        1.2345328007
 C          9.0697705344        1.6893036755        2.3800646847
 C          7.7387559666        1.7697115372        2.7850870268
 C          6.7260283628        1.1796676389        2.0540494201
 C          7.0760988678        0.5075222313        0.8907214320
 C          4.0617434116        0.8378890714        0.0294369827
 C          4.5953183114        2.1229944125       -0.1171374061
 C          3.7799494651        3.2489107463       -0.0853245314
 C          2.4211233118        3.1063112493        0.1063011933
 C          1.8592595051        1.8355533120        0.1912321731
 C          2.6453616985        0.6833716343        0.0960385119
 C         -0.1054821551       -1.5538695331        0.9061357735
 C         -1.4774406848       -1.6157148695        0.8377502767
 N         -4.3600055678       -1.9494991790        0.1719810232
 C         -5.6509835009       -1.5348358382        0.1051239405
 C         -6.8294429232       -2.3165427426        0.2602441123
 C         -6.7592419630       -3.6912714027        0.5094966404
 C         -7.9069831361       -4.4370101893        0.6121390123
 C         -9.1436801055       -3.8130601526        0.4615314351
 C         -9.2246107912       -2.4605181535        0.2234875235
 C         -8.0753300620       -1.6623550245        0.1219574766
 C         -8.1292234731       -0.2264658988       -0.0933357273
 C         -9.3476807695        0.4645296696       -0.1455016306
 C         -9.4063376134        1.8294746339       -0.3018115337
 C         -8.2340118837        2.5733161403       -0.3936133631
 C         -7.0192786006        1.9346139153       -0.3560746167
 C         -6.9389708945        0.5399223479       -0.2308199389
 C         -5.7078411009       -0.1713836958       -0.1929140323
 C         -4.1894124823        2.0168361097       -1.9230629279
 C         -3.6080369254        3.2206119829       -2.3389006573
 C         -2.7011451352        3.8605590576       -1.5404446516
 C         -2.3645215123        3.3433796668       -0.2723274564
 C         -1.4199777875        3.9792423897        0.5609477235
 H         -0.3755578430        3.9502664392        2.4149201305
 H         -1.5210604904        1.9297992139        3.2358410596
 H         -3.1800363556        0.7903211895        1.8450728292
 H         -1.9633593427        0.3570247472       -1.8711475967
 H          0.4657251500        0.4829727291       -1.7288638228
 H          1.3339856374       -3.2319930620       -0.0540707724
 H          2.7835581026       -5.1875290040        0.1737724905
 H          5.2218941842       -4.8941560117        0.5006234846
 H          6.1949587361       -2.6484182892        0.4648489051
 H          5.6904453427       -1.7264916897       -2.2800911842
 H          7.4812690047       -2.4651485641       -3.8117492615
 H          9.8243786919       -1.9004062327       -3.3777859490
 H         10.4547667300       -0.5454508083       -1.4084206282
 H         10.4589433279        0.9288463761        0.9304501949
 H          9.8323651045        2.1665699004        2.9768683896
 H          7.4939205765        2.3036362096        3.6911387191
 H          5.6963244675        1.2414885674        2.3709354333
 H          5.6579147377        2.2498132525       -0.2523356937
 H          4.2212485362        4.2287580658       -0.1901599908
 H          1.7820785094        3.9733747578        0.1789847592
 H          0.7945210907        1.7468783653        0.3382615899
 H          0.4156213446       -2.0706028620        1.6983456149
 H         -2.0379275698       -2.2022040857        1.5493681423
 H         -5.7813039161       -4.1363574414        0.6069941848
 H         -7.8570718829       -5.4989379593        0.8015872516
 H        -10.0499217605       -4.3969712124        0.5322177084
 H        -10.2034616631       -2.0224301836        0.1103645038
 H        -10.2752450388       -0.0763103418       -0.0510735689
 H        -10.3643862647        2.3265206304       -0.3385984575
 H         -8.2782035967        3.6480716507       -0.4895911303
 H         -6.1123018989        2.5154184045       -0.4067441241
 H         -4.8765159945        1.4945388901       -2.5731147861
 H         -3.8682333094        3.6223917621       -3.3064452434
 H         -2.2271428194        4.7731317879       -1.8705982593
 H         -0.9451271495        4.8819942159        0.2043094750
  95
       -148.71683115
 C         -4.4502469527        4.3079302540        3.0493826782
 C         -4.9811946478        3.0106440934        3.1029429051
 C         -4.7507338258        2.1252958131        2.0871434487
 C         -3.9773897104        2.5024447063        0.9700960813
 C         -3.7170332891        1.6208657955       -0.1145430692
 N         -4.2164600608        0.3045912012       -0.0862892710
 C         -3.4304811195       -0.8283291625       -0.0174283061
 C         -1.9880230808       -0.8021610544        0.0696329216
 C         -1.2555971998       -1.7992471519       -0.5851210221
 C          0.1179349500       -1.7742626866       -0.5910315402
 C          0.8262634213       -0.7475816262        0.0546201588
 C          2.2705323298       -0.6631268339       -0.0140666372
 C          3.0763177646       -1.8021181082        0.3046191625
 C          2.5189177013       -2.9758776339        0.8209695222
 C          3.3068034765       -4.0735724641        1.1511924071
 C          4.6787015904       -4.0023394255        1.0199476432
 C          5.2693140093       -2.8269739072        0.5727142478
 C          4.4964059171       -1.7203119868        0.2034304772
 C          5.0943299778       -0.4819740967       -0.1675797365
 N          6.4852449449       -0.3877587114       -0.2343840112
 C          7.3072774257       -1.0932551500       -1.0888945410
 C          6.9657692742       -2.0035976702       -2.0794832790
 C          7.9887400014       -2.5487311672       -2.8310354949
 C          9.3186182052       -2.1943721590       -2.6129961717
 C          9.6618707361       -1.2750414482       -1.6396961181
 C          8.6523491054       -0.7152084132       -0.8700183602
 C          8.6324791129        0.2617751089        0.1853722325
 C          9.6187154998        0.9731924452        0.8533754587
 C          9.2407970456        1.8401921746        1.8612025551
 C          7.9014319913        1.9938197616        2.2136542474
 C          6.9016508414        1.2953023348        1.5650295670
 C          7.2749073670        0.4376269949        0.5395691203
 C          4.3067702510        0.6666659332       -0.4671182004
 C          4.8896294172        1.8583752029       -0.9138399548
 C          4.1118694527        2.9479064634       -1.2847995540
 C          2.7360416659        2.8464147255       -1.2614400679
 C          2.1329916569        1.6610185027       -0.8546377682
 C          2.8853269983        0.5682843076       -0.4117262351
 C          0.0824655222        0.2113312659        0.7609143787
 C         -1.2907340222        0.1825216916        0.7778614068
 N         -4.1478667444       -1.9272359455       -0.0553353987
 C         -5.4405536034       -1.5270268933       -0.1418671182
 C         -6.6098886832       -2.3376128449       -0.1617874989
 C         -6.5257114377       -3.7313876694       -0.0789283058
 C         -7.6657888121       -4.4955105333       -0.0645292906
 C         -8.9088893652       -3.8697951033       -0.1287493808
 C         -9.0032114876       -2.5001695002       -0.2165280716
 C         -7.8616822097       -1.6850506083       -0.2434824379
 C         -7.9289198302       -0.2386146462       -0.3672845483
 C         -9.1495333616        0.4315642354       -0.5266969097
 C         -9.2176282367        1.7962619626       -0.6820389757
 C         -8.0527238501        2.5568787202       -0.7031260147
 C         -6.8363487003        1.9408149908       -0.5445261297
 C         -6.7480202965        0.5539262101       -0.3562118343
 C         -5.5151636818       -0.1322530883       -0.1820918840
 C         -2.9329063809        2.0165044438       -1.1698188419
 C         -2.3824021152        3.3040773859       -1.1999075230
 C         -2.6246049809        4.1821046920       -0.1811555285
 C         -3.4241260861        3.8088315312        0.9203278802
 C         -3.6859574999        4.6962857552        1.9849865187
 H         -4.6472169145        4.9950875776        3.8586577918
 H         -5.5753608539        2.7140934499        3.9542122017
 H         -5.1609608377        1.1276010397        2.1334181566
 H         -1.7966887994       -2.5713944424       -1.1094413641
 H          0.6665187077       -2.5175288347       -1.1502114815
 H          1.4553712313       -3.0272436574        0.9905041179
 H          2.8379178525       -4.9721340673        1.5231434658
 H          5.3003753634       -4.8461663108        1.2789419324
 H          6.3452025560       -2.7703464695        0.5208717515
 H          5.9357188450       -2.2761068990       -2.2509357208
 H          7.7526808550       -3.2629435263       -3.6056387581
 H         10.0899609318       -2.6430181512       -3.2206258318
 H         10.6916020632       -0.9918560782       -1.4825005574
 H         10.6581529160        0.8467546291        0.5913782863
 H          9.9929991841        2.4057003392        2.3902215286
 H          7.6397656770        2.6716328893        3.0123989873
 H          5.8647064612        1.4122941302        1.8401705638
 H          5.9630507168        1.9370487679       -0.9824829523
 H          4.5909393100        3.8606783647       -1.6057326369
 H          2.1198518178        3.6774917326       -1.5708207276
 H          1.0586632984        1.5821492622       -0.9032023225
 H          0.6081383371        0.9619710735        1.3325629924
 H         -1.8266034371        0.9118786990        1.3653352006
 H         -5.5435858402       -4.1740514267       -0.0203534116
 H         -7.6051630809       -5.5715776180        0.0016987563
 H         -9.8097080910       -4.4658523812       -0.1089623336
 H         -9.9869533387       -2.0608066796       -0.2614174271
 H        -10.0709456608       -0.1275746594       -0.5386001938
 H        -10.1772464973        2.2768336193       -0.8023300736
 H         -8.1035867344        3.6257368839       -0.8482440855
 H         -5.9347366201        2.5300780991       -0.5830055559
 H         -2.7380309840        1.3253765894       -1.9765192231
 H         -1.7671654455        3.5920888394       -2.0388189539
 H         -2.2038361116        5.1766190159       -0.2008342547
 H         -3.2679744787        5.6915977376        1.9411359941
  95
       -148.71654724
 C         -1.0573657609        3.5565294832        1.6598607209
 C         -1.6446158291        2.3857593605        2.1638755128
 C         -2.5707346332        1.7019888476        1.4277018127
 C         -2.9398248665        2.1502396604        0.1424489294
 C         -3.8580376115        1.4499704676       -0.6841426588
 N         -4.3654161719        0.2005471610       -0.2824101845
 C         -3.6158670320       -0.9418174504       -0.0705800545
 C         -2.1664314761       -0.9496899627       -0.0574156712
 C         -1.4101997768       -0.2233947540       -0.9816016661
 C         -0.0437636792       -0.1608590279       -0.8641657491
 C          0.6348930526       -0.8282497123        0.1680998874
 C          2.0734885821       -0.6806651756        0.2850212211
 C          2.9338903860       -1.8201447223        0.3650136049
 C          2.4484649527       -3.1312417643        0.3844751756
 C          3.3027385208       -4.2215733283        0.5237610617
 C          4.6635535542       -4.0246947873        0.6373248200
 C          5.1829806280       -2.7380470625        0.5486325457
 C          4.3479264188       -1.6307359905        0.3707192646
 C          4.8805631430       -0.3186914561        0.2070118747
 N          6.2582445808       -0.1719992035        0.0337681603
 C          6.9795714828       -0.7210567189       -1.0082018247
 C          6.5278672175       -1.4743617710       -2.0827300990
 C          7.4574978757       -1.8713631249       -3.0241005758
 C          8.8018935798       -1.5230791385       -2.9093212049
 C          9.2528829860       -0.7587902693       -1.8499200737
 C          8.3384515251       -0.3509950567       -0.8889697415
 C          8.4372838832        0.4476971962        0.3027875552
 C          9.4943997677        1.0623049088        0.9583499674
 C          9.2368150158        1.7487838684        2.1298727581
 C          7.9476667469        1.8160012249        2.6550217165
 C          6.8789963521        1.2117466905        2.0216389100
 C          7.1289628507        0.5375810664        0.8337710730
 C          4.0367605175        0.8266332761        0.1772140279
 C          4.5407898942        2.1217301730        0.0151123363
 C          3.7015879002        3.2299363978        0.0474464638
 C          2.3484377284        3.0597038309        0.2543749221
 C          1.8162187330        1.7778766900        0.3609741319
 C          2.6257782656        0.6422765057        0.2693983298
 C         -0.1276373823       -1.6060087320        1.0512233019
 C         -1.4974794147       -1.6676167112        0.9375459961
 N         -4.3692611645       -1.9916145726        0.1461800100
 C         -5.6534244929       -1.5570935916        0.0575607782
 C         -6.8492810786       -2.3267797592        0.1118338503
 C         -6.8133014418       -3.7177704215        0.2544441497
 C         -7.9746868313       -4.4489094120        0.2178036373
 C         -9.1904557951       -3.7946583858        0.0303989154
 C         -9.2395331807       -2.4253847389       -0.0939570823
 C         -8.0771405438       -1.6422511444       -0.0435948381
 C         -8.1020724159       -0.1918443977       -0.1265399414
 C         -9.3051204488        0.5267163165       -0.1051693233
 C         -9.3323482106        1.9015736815       -0.1277764003
 C         -8.1437155226        2.6244021988       -0.1567148725
 C         -6.9432222905        1.9586943086       -0.1859579057
 C         -6.8956433418        0.5571397630       -0.1899638003
 C         -5.6813189094       -0.1833576752       -0.1881087787
 C         -4.2246086887        1.9540086089       -1.9102931841
 C         -3.6898060950        3.1624505022       -2.3707352478
 C         -2.7718053804        3.8404254340       -1.6177340827
 C         -2.3738079289        3.3537651462       -0.3553203411
 C         -1.4238681568        4.0356785360        0.4342312939
 H         -0.3220844307        4.0775709323        2.2549481126
 H         -1.3592351278        2.0285614573        3.1420105558
 H         -3.0281625092        0.8110222442        1.8291790683
 H         -1.8960240621        0.2782484637       -1.8046179991
 H          0.5312507677        0.3907102494       -1.5932341454
 H          1.3909351989       -3.3091942886        0.2784895653
 H          2.8909138212       -5.2193410316        0.5470073030
 H          5.3317611660       -4.8619724015        0.7708666825
 H          6.2507744694       -2.5967332933        0.6142679003
 H          5.4865877397       -1.7414430317       -2.1759120884
 H          7.1346522351       -2.4617127109       -3.8686208855
 H          9.4977507491       -1.8522015118       -3.6663211925
 H         10.2922866742       -0.4782907053       -1.7712039874
 H         10.4960739668        0.9986270290        0.5610039290
 H         10.0456350809        2.2360083942        2.6533200477
 H          7.7810951883        2.3504359038        3.5783728892
 H          5.8816635344        1.2630998290        2.4309313872
 H          5.5983291068        2.2705712517       -0.1351126138
 H          4.1198868978        4.2181941568       -0.0717018821
 H          1.6900924308        3.9124579368        0.3207528809
 H          0.7551737035        1.6676904997        0.5188667455
 H          0.3630718885       -2.1062166236        1.8728340280
 H         -2.0815937677       -2.2420077169        1.6402506009
 H         -5.8496307373       -4.1875575439        0.3752376737
 H         -7.9502092642       -5.5236134110        0.3201690934
 H        -10.1047296236       -4.3679888661       -0.0203889873
 H        -10.2007662654       -1.9609729161       -0.2473416676
 H        -10.2433637775       -0.0009657634       -0.0481568434
 H        -10.2784359379        2.4218016644       -0.1039641899
 H         -8.1640174715        3.7040889369       -0.1457051702
 H         -6.0229527596        2.5209426003       -0.1807175918
 H         -4.9299683942        1.4076192175       -2.5195567678
 H         -3.9992411983        3.5406277175       -3.3332587565
 H         -2.3383582699        4.7614310362       -1.9787310875
 H         -0.9930898458        4.9476071319        0.0460507746
  95
       -148.71631387
 C         -4.3247964816        4.7861445544        2.2289778005
 C         -4.8702996098        3.5290286191        2.5298029257
 C         -4.6856522777        2.4729013667        1.6816135548
 C         -3.9445121433        2.6309414167        0.4924239571
 C         -3.7245299856        1.5632588232       -0.4200415873
 N         -4.2271079049        0.2781758117       -0.1368518358
 C         -3.4393230899       -0.8241755381        0.1286196790
 C         -1.9976097781       -0.7773030409        0.2166697536
 C         -1.2564573309       -1.8754213358       -0.2349396476
 C          0.1171714251       -1.8456037420       -0.2354906089
 C          0.8175582227       -0.7129074873        0.2100997439
 C          2.2630074218       -0.6364337050        0.1366978132
 C          3.0687980131       -1.6915779947        0.6706722422
 C          2.5130020706       -2.7676370002        1.3690476500
 C          3.2977533496       -3.8246955381        1.8201852515
 C          4.6561428292       -3.8286720996        1.5762464425
 C          5.2475043126       -2.7415687535        0.9434057840
 C          4.4874649069       -1.6413501736        0.5316089203
 C          5.0870155331       -0.4855792277       -0.0445504898
 N          6.4775360072       -0.4148332011       -0.1505058890
 C          7.1897549290       -0.2833864399       -1.3256723360
 C          6.7245768024       -0.2489280107       -2.6332192323
 C          7.6591338599       -0.1447086041       -3.6450824595
 C          9.0241094110       -0.0850169167       -3.3705085252
 C          9.4931326152       -0.1403982231       -2.0717254176
 C          8.5734839506       -0.2433258837       -1.0376408845
 C          8.6931369645       -0.3435454612        0.3918177732
 C          9.7708388166       -0.3336793684        1.2658648846
 C          9.5230850325       -0.4292893969        2.6220383779
 C          8.2208997655       -0.5198507155        3.1101396009
 C          7.1318373775       -0.5296700426        2.2604333563
 C          7.3765510604       -0.4553627604        0.8958943767
 C          4.2995289214        0.6012464163       -0.5207649702
 C          4.8829449237        1.7766032220       -1.0067872065
 C          4.1073411696        2.7978364843       -1.5424622455
 C          2.7372779447        2.6502149553       -1.6154651159
 C          2.1301950762        1.5143202675       -1.0884930345
 C          2.8773693046        0.5011027681       -0.4794271920
 C          0.0652671408        0.3574775958        0.7186352694
 C         -1.3079431012        0.3252154223        0.7326465983
 N         -4.1550624221       -1.9145741497        0.2794202561
 C         -5.4479260352       -1.5380250725        0.1208629337
 C         -6.6154872063       -2.3447129398        0.2257876859
 C         -6.5287464615       -3.7069907426        0.5315404504
 C         -7.6667111375       -4.4651621315        0.6514832061
 C         -8.9105423707       -3.8647258095        0.4685265679
 C         -9.0074333615       -2.5266195416        0.1639633627
 C         -7.8681457797       -1.7193250787        0.0268253342
 C         -7.9387284903       -0.3100297743       -0.3211420729
 C         -9.1613458763        0.3265046447       -0.5754601382
 C         -9.2327882144        1.6504123211       -0.9406921087
 C         -8.0693539621        2.3995237444       -1.0863510920
 C         -6.8511690912        1.8168656151       -0.8396894407
 C         -6.7592399184        0.4762147325       -0.4381214165
 C         -5.5248634793       -0.1705825820       -0.1576568907
 C         -2.9710028766        1.7496979539       -1.5524158084
 C         -2.4132360930        3.0033301198       -1.8342422936
 C         -2.6144524914        4.0545986143       -0.9845776353
 C         -3.3796831831        3.8979722431        0.1909482032
 C         -3.5944471697        4.9656061117        1.0875707021
 H         -4.4837831563        5.6093806872        2.9093847326
 H         -5.4390277961        3.4000746164        3.4384573883
 H         -5.1073683874        1.5068880940        1.9163057645
 H         -1.7903847342       -2.7349175724       -0.6092412707
 H          0.6722597048       -2.6783563377       -0.6411916222
 H          1.4541332752       -2.7790156936        1.5717308506
 H          2.8343629762       -4.6422231805        2.3516950229
 H          5.2688284144       -4.6595011650        1.8922196330
 H          6.3130186160       -2.7489586323        0.7751965232
 H          5.6682408168       -0.2969061761       -2.8484237589
 H          7.3248174571       -0.1112206782       -4.6713023973
 H          9.7232255692       -0.0009880159       -4.1889197548
 H         10.5516062667       -0.1092162531       -1.8620763419
 H         10.7793500822       -0.2485052578        0.8904420785
 H         10.3481927635       -0.4280045420        3.3183048172
 H          8.0595375425       -0.5820927423        4.1759745294
 H          6.1243986619       -0.5978265722        2.6411410397
 H          5.9545379553        1.8956557862       -0.9727788960
 H          4.5854415629        3.6897890055       -1.9184718260
 H          2.1272343288        3.4160233382       -2.0709628304
 H          1.0586368964        1.4172308692       -1.1595563221
 H          0.5836241454        1.2040233841        1.1444127202
 H         -1.8490384406        1.1480558548        1.1731305913
 H         -5.5463498128       -4.1301767062        0.6722436604
 H         -7.6038835859       -5.5168492060        0.8881716052
 H         -9.8098153144       -4.4555723009        0.5656513271
 H         -9.9916843128       -2.1062990463        0.0323896511
 H        -10.0822160170       -0.2274102991       -0.4923783868
 H        -10.1940786235        2.1060572781       -1.1267679365
 H         -8.1228922432        3.4328703065       -1.3953189905
 H         -5.9510195761        2.3946811013       -0.9714222764
 H         -2.8059197521        0.9199491311       -2.2238497052
 H         -1.8244507221        3.1261180492       -2.7306628502
 H         -2.1868495766        5.0232823096       -1.1975835985
 H         -3.1668265707        5.9297423206        0.8530628254
  95
       -148.71570626
 C         -3.9486794894        4.7039171354        2.1646575672
 C         -4.6584744400        3.5270245719        2.4463988674
 C         -4.5262118738        2.4292902443        1.6424528794
 C         -3.6750251944        2.4629908830        0.5186507652
 C         -3.5018293779        1.3466481917       -0.3438748252
 N         -4.1518459666        0.1285050755       -0.0641434278
 C         -3.4879817289       -1.0315947062        0.2832996091
 C         -2.0466535670       -1.0636509864        0.4297251993
 C         -1.3090575995       -2.1171225611       -0.1155083359
 C          0.0667539699       -2.0737872979       -0.1336312164
 C          0.7602870822       -0.9712906526        0.3857081673
 C          2.1969649397       -0.8244843656        0.2384846367
 C          3.0865164565       -1.8613292100        0.6574371125
 C          2.6265767323       -3.0219269978        1.2865177334
 C          3.4957529190       -4.0518428493        1.6355889824
 C          4.8429174288       -3.9413985842        1.3589412940
 C          5.3387580710       -2.7741070596        0.7877129065
 C          4.4925850675       -1.7062368060        0.4726013146
 C          4.9918762168       -0.4806194608       -0.0542101325
 N          6.3697930430       -0.3084202325       -0.2000868900
 C          7.0312731276       -0.0633421612       -1.3862549630
 C          6.5229602501       -0.0056480149       -2.6768014420
 C          7.4130486918        0.2232493290       -3.7080228491
 C          8.7766522112        0.3831730344       -3.4689385392
 C          9.2900969869        0.3054936559       -2.1881732399
 C          8.4156299236        0.0776025104       -1.1351443975
 C          8.5879195588       -0.0779930833        0.2840827909
 C          9.6868626733       -0.0132913291        1.1287319361
 C          9.4892576018       -0.1881598329        2.4853518168
 C          8.2152367797       -0.4131273617        3.0032613985
 C          7.1055690740       -0.4799774135        2.1831964411
 C          7.3015257302       -0.3233986499        0.8179259676
 C          4.1176419246        0.5757037757       -0.4398339744
 C          4.6027619011        1.8095983606       -0.8862614552
 C          3.7396598103        2.8080483336       -1.3241637027
 C          2.3791229532        2.5807559303       -1.3334036622
 C          1.8696815104        1.3816352172       -0.8430909814
 C          2.7082869817        0.3833847132       -0.3368616142
 C          0.0117469166        0.0311992539        1.0206730837
 C         -1.3600587089       -0.0157904793        1.0512661787
 N         -4.3056301691       -2.0447819794        0.4260505011
 C         -5.5493040098       -1.5564488625        0.1775999446
 C         -6.7928189476       -2.2453564388        0.2389286979
 C         -6.8560952407       -3.5962599761        0.5970329335
 C         -8.0670009454       -4.2377556070        0.6753593966
 C         -9.2350222663       -3.5302678017        0.3985501208
 C         -9.1846586985       -2.2027269130        0.0415756270
 C         -7.9666162548       -1.5135279883       -0.0572864579
 C         -7.8828216144       -0.1200428214       -0.4605684863
 C         -9.0208725774        0.6162172764       -0.8181152152
 C         -8.9418470534        1.9245602914       -1.2343197095
 C         -7.7054775685        2.5560759301       -1.3285326878
 C         -6.5663486533        1.8730609752       -0.9819426215
 C         -6.6295102862        0.5474270832       -0.5290906585
 C         -5.4817677520       -0.2000940168       -0.1490395749
 C         -2.6402771768        1.4107950317       -1.4108211997
 C         -1.9196630050        2.5831493099       -1.6723568992
 C         -2.0674725659        3.6770786574       -0.8670168386
 C         -2.9442595611        3.6472660483        0.2384498957
 C         -3.1091718217        4.7614454712        1.0876091093
 H         -4.0687936516        5.5622631817        2.8086291413
 H         -5.3123097074        3.4931265813        3.3049374480
 H         -5.0740798869        1.5252251519        1.8627989373
 H         -1.8396947624       -2.9439095510       -0.5621023422
 H          0.6217440904       -2.8616677933       -0.6209804940
 H          1.5773953172       -3.1215416147        1.5141608579
 H          3.1062364609       -4.9366952958        2.1161580838
 H          5.5212335100       -4.7458157886        1.6003650061
 H          6.3967758105       -2.6943970755        0.5923527216
 H          5.4674596636       -0.1303782864       -2.8637316376
 H          7.0444930522        0.2781731238       -4.7214822753
 H          9.4400441679        0.5638771783       -4.3013402871
 H         10.3486197724        0.4150120516       -2.0071810821
 H         10.6725369861        0.1757340198        0.7312625926
 H         10.3318888081       -0.1440435453        3.1588636748
 H          8.0923607572       -0.5356550517        4.0689800393
 H          6.1194430809       -0.6514529455        2.5865581495
 H          5.6653023352        1.9950947615       -0.8979684310
 H          4.1436328993        3.7467871687       -1.6723092652
 H          1.6997883441        3.3318054281       -1.7083770156
 H          0.8027421472        1.2264456191       -0.8606200335
 H          0.5321662284        0.8440556432        1.5052716043
 H         -1.9061956284        0.7579589933        1.5686552488
 H         -5.9287256379       -4.1047260356        0.8100632941
 H         -8.1195010110       -5.2805566175        0.9507687241
 H        -10.1912489434       -4.0288986050        0.4632918154
 H        -10.1144022375       -1.6960405068       -0.1625415406
 H         -9.9938743027        0.1542594089       -0.7773943446
 H         -9.8414307665        2.4597174844       -1.5001908871
 H         -7.6409252332        3.5766463764       -1.6755971092
 H         -5.6079062554        2.3575770164       -1.0735658080
 H         -2.5131201280        0.5456895633       -2.0448400724
 H         -1.2463965792        2.6074764789       -2.5159876406
 H         -1.5112656597        4.5824028751       -1.0608643413
 H         -2.5549169707        5.6627568274        0.8689611206
