  95
       -148.71791908
 C         -1.1315017938        3.6513019989        1.4155334611
 C         -1.7155053287        2.4961501093        1.9573755630
 C         -2.6430153954        1.7890650149        1.2453609238
 C         -3.0202233830        2.2006713683       -0.0496350499
 C         -3.9364781898        1.4697133532       -0.8528035662
 N         -4.4122189360        0.2237171083       -0.4026311341
 C         -3.6183409936       -0.8853837928       -0.1734725748
 C         -2.1758363003       -0.8864771270       -0.2784551506
 C         -1.4740935156       -0.1173439577       -1.2121032687
 C         -0.1023275165       -0.0539519936       -1.1721307986
 C          0.6353524761       -0.7797357086       -0.2254571558
 C          2.0776063344       -0.6454601890       -0.1480574678
 C          2.9123900437       -1.8059663058       -0.1821241154
 C          2.3910248684       -3.0886944140       -0.3757467912
 C          3.2058518523       -4.2166293147       -0.3442500208
 C          4.5600469058       -4.0834716613       -0.1150632220
 C          5.1171992385       -2.8166404042        0.0188286095
 C          4.3264440297       -1.6654677115       -0.0601168513
 C          4.8906023261       -0.3593709375        0.0060667284
 N          6.2786415795       -0.2200351452        0.0743552562
 C          7.1811172627       -0.6527017285       -0.8759147214
 C          6.9398486137       -1.2555807414       -2.1028465282
 C          8.0303274984       -1.5612438341       -2.8937380603
 C          9.3300343101       -1.2696652233       -2.4838759908
 C          9.5738423220       -0.6513899890       -1.2722044781
 C          8.4946055904       -0.3354412694       -0.4591679884
 C          8.3693821081        0.3105504576        0.8194114613
 C          9.2846051564        0.8175024705        1.7309034914
 C          8.8112064503        1.3656263572        2.9079203343
 C          7.4462540773        1.4008432185        3.1867140876
 C          6.5158369990        0.9015573511        2.2960744842
 C          6.9852466644        0.3676653697        1.1037220114
 C          4.0726796638        0.8063063345        0.0010944705
 C          4.6218424909        2.0931149207       -0.0017558528
 C          3.8122497883        3.2218830404        0.0578779976
 C          2.4422202505        3.0788058462        0.1359194498
 C          1.8695008212        1.8109994285        0.0909009445
 C          2.6539803526        0.6599508858       -0.0326261846
 C         -0.0722820542       -1.6220400111        0.6455162025
 C         -1.4451844938       -1.6682044297        0.6239329809
 N         -4.3261961301       -1.9240727110        0.2037339859
 C         -5.6187654701       -1.5146373642        0.2142214257
 C         -6.7773528928       -2.2847154569        0.5122543768
 C         -6.6803508808       -3.6407729097        0.8416222105
 C         -7.8117347806       -4.3759911422        1.0936091268
 C         -9.0590490155       -3.7603121202        1.0133776606
 C         -9.1656440873       -2.4258330395        0.6962896876
 C         -8.0327623262       -1.6381151230        0.4424842830
 C         -8.1102411616       -0.2181074350        0.1441541220
 C         -9.3328262278        0.4674329755        0.1433852414
 C         -9.4107760241        1.8206643523       -0.0882303306
 C         -8.2527980228        2.5588810516       -0.3119513397
 C         -7.0354468082        1.9244448636       -0.3304901881
 C         -6.9378830138        0.5395169970       -0.1302941842
 C         -5.7040249264       -0.1676605341       -0.1476459974
 C         -4.3078847768        1.9313469287       -2.0935223845
 C         -3.7769402566        3.1268971954       -2.5926154568
 C         -2.8591556512        3.8313332256       -1.8637568966
 C         -2.4575084906        3.3884667301       -0.5862333706
 C         -1.5028921754        4.0932084121        0.1772873046
 H         -0.3943032677        4.1905429678        1.9917016977
 H         -1.4264431973        2.1690040464        2.9448649007
 H         -3.0945746722        0.9074360435        1.6740786474
 H         -2.0028825115        0.4190543931       -1.9842597155
 H          0.4271908407        0.5378605634       -1.9043670086
 H          1.3359732222       -3.2104648541       -0.5614490651
 H          2.7688281666       -5.1927401063       -0.4920812454
 H          5.1961685414       -4.9539201392       -0.0588045336
 H          6.1798741029       -2.7263972680        0.1811072083
 H          5.9340403042       -1.4803932119       -2.4227448062
 H          7.8721842128       -2.0347311889       -3.8511994464
 H         10.1564522095       -1.5267720945       -3.1293133765
 H         10.5804425950       -0.4132493110       -0.9633529593
 H         10.3432249035        0.7781901642        1.5233929457
 H          9.5070114535        1.7683832294        3.6285205476
 H          7.1088323816        1.8259001105        4.1202399520
 H          5.4593891362        0.9275569129        2.5146824346
 H          5.6923551579        2.2182187050       -0.0467825360
 H          4.2646292712        4.2022105856        0.0629894055
 H          1.8034224636        3.9446432502        0.2232236214
 H          0.7968718749        1.7240130933        0.1600158574
 H          0.4734503460       -2.1893049469        1.3848789838
 H         -1.9881666835       -2.2838385987        1.3240201234
 H         -5.6959142057       -4.0802498553        0.8824869074
 H         -7.7412886266       -5.4231029440        1.3478221882
 H         -9.9533335561       -4.3361199976        1.2028856747
 H        -10.1522806951       -1.9937706441        0.6441697189
 H        -10.2478283130       -0.0678300715        0.3382619315
 H        -10.3715971671        2.3136899959       -0.0811220103
 H         -8.3098249950        3.6260952454       -0.4668985305
 H         -6.1385823217        2.5021980477       -0.4854719577
 H         -5.0083030256        1.3605415679       -2.6859477138
 H         -4.0858740973        3.4715085742       -3.5677705920
 H         -2.4264430739        4.7392403574       -2.2572333333
 H         -1.0706254929        4.9909672793       -0.2409983250
