  63
       -106.19650821
 C          8.0726367448       -1.3775519820        1.6951158481
 C          7.8188671809       -1.3834709071        0.1874284474
 N          6.5270909454       -1.9427446358       -0.1505448102
 C          6.5108149781       -3.3585695695       -0.4469465118
 C          6.7111138336       -3.6434339441       -1.9364336040
 C          5.3967603413       -1.1874780213       -0.1560052189
 C          4.1657097426       -1.6987795009       -0.6289349292
 C          3.0145912490       -0.9596268887       -0.5835604112
 C          2.9944496766        0.3494380283       -0.0784822254
 C          4.2409470913        0.9040938978        0.2665524333
 C          5.3996829178        0.1479095656        0.2643791990
 O          4.3703683314        2.1990238492        0.6265313639
 C          3.3491072933        3.1145701875        0.4735689057
 O          3.6245389887        4.2665106634        0.6625724582
 C          2.0345737468        2.5619462930        0.1635152952
 C          0.9377845044        3.5088988107       -0.0007648635
 O          0.9985682591        4.7053080404        0.0463403857
 O         -0.2929274501        2.9621452729       -0.3145523996
 C         -0.5404395608        1.6406378391       -0.2128898925
 C         -1.8648251946        1.2487858823       -0.3272312703
 C         -2.2280353904       -0.0888853941       -0.1768873996
 N         -3.5386226357       -0.4892531881       -0.2935206058
 C         -3.9583075088       -1.8152164930       -0.0578076213
 C         -3.4058981879       -2.8861411357       -0.7527556461
 C         -3.8251195523       -4.1777680461       -0.4911778935
 C         -4.8168891371       -4.4136494470        0.4478678472
 C         -5.4122228588       -3.3531463494        1.1050580336
 C         -4.9898366670       -2.0579530863        0.8476465676
 S         -5.7755668284       -0.6924789010        1.6592210595
 C         -5.6969733205        0.4401622961        0.2969106405
 C         -6.7397334756        1.3258328844        0.0736974878
 C         -6.6933840983        2.1800191080       -1.0122111202
 C         -5.6253371197        2.1226934059       -1.8936193232
 C         -4.5865824203        1.2366695332       -1.6740146046
 C         -4.5936786928        0.4136807468       -0.5529906719
 C         -1.2240414808       -0.9976197692        0.2090760336
 C          0.0877443265       -0.6098239265        0.2896850874
 C          0.4859091742        0.7039265031        0.0039143252
 C          1.8392566290        1.1944053835        0.0283551112
 H          9.0548492101       -0.9633695483        1.9054319751
 H          7.3237663837       -0.7798768382        2.2074023515
 H          8.0309856843       -2.3896489303        2.0914124719
 H          7.8956543174       -0.3703157859       -0.2125907477
 H          8.5840813904       -1.9867360717       -0.3076917695
 H          5.5721456486       -3.7967219979       -0.1008487668
 H          7.3164161519       -3.8303341956        0.1221636618
 H          7.6650014787       -3.2448262577       -2.2731403669
 H          5.9240135726       -3.1803610410       -2.5255813638
 H          6.7008848141       -4.7150839449       -2.1167973107
 H          4.1166356460       -2.6833726248       -1.0623910588
 H          2.1136941987       -1.3765520689       -1.0043113181
 H          6.2957831571        0.6495927897        0.5846483676
 H         -2.5985513910        2.0206391409       -0.4880302415
 H         -2.6435258878       -2.6953245855       -1.4930868370
 H         -3.3784288629       -5.0017566856       -1.0261749602
 H         -5.1386858743       -5.4221300447        0.6562481272
 H         -6.2016557530       -3.5156926815        1.8221408894
 H         -7.5746931050        1.3387718676        0.7568146971
 H         -7.4987479001        2.8780280544       -1.1794801607
 H         -5.5999522359        2.7690594954       -2.7571813791
 H         -3.7591702120        1.1799134431       -2.3647563410
 H         -1.4895354999       -2.0069206032        0.4799828013
 H          0.8193823774       -1.3201316539        0.6392075476
