  129
       -198.95884992
 C         -5.8487709455       -0.0675723153       -4.8402920377
 C         -4.7431469646       -0.3592971488       -3.8172849429
 C         -3.7289382256       -1.3023606284       -4.4859956081
 C         -4.1000501395        0.9411786089       -3.3511131998
 C         -4.8943542851        2.0579904693       -3.0851849077
 C         -4.3365960211        3.2123729406       -2.5748229577
 C         -2.9783023274        3.2704833673       -2.2706654318
 C         -2.1326312016        2.1677177442       -2.5191078602
 C         -2.7420687697        1.0363914983       -3.0782302052
 B         -0.6661324255        2.2865020794       -2.0464595528
 C          0.5364619292        1.3322443158       -2.1125511544
 C          0.6259569441        0.1311097937       -2.8452634586
 C          1.6608129681       -0.7609306156       -2.6885650703
 C          2.6773581664       -0.4945531283       -1.7714373099
 N          3.6907202338       -1.4606579472       -1.5409790563
 C          3.3348021454       -2.6653573688       -0.9643526311
 C          2.0183433804       -2.8669469365       -0.5268729396
 C          1.6318470561       -4.0597802496        0.0418023553
 C          2.5530924950       -5.0829476573        0.1947584127
 C          3.8589732659       -4.8818536437       -0.2135462669
 C          4.2769207401       -3.6880925979       -0.7851014404
 C          5.7263366299       -3.5273821371       -1.1886561370
 C          6.0553203953       -4.5729435763       -2.2710607003
 C          6.6140092255       -3.7509689922        0.0484127897
 C          6.0033496408       -2.1516143219       -1.7553856835
 C          7.2919250032       -1.8291841902       -2.1570633445
 C          7.5982400270       -0.6093270561       -2.7310849149
 C          6.5866041910        0.3140710621       -2.9371711435
 C          5.2988097788        0.0205508849       -2.5483354341
 C          4.9890756824       -1.1993933082       -1.9314994354
 C          2.6856507057        0.7249196955       -1.0967794677
 C          1.6546116870        1.6359504607       -1.2935041956
 O          1.8108780680        2.8131930093       -0.6200400078
 C          0.8616593163        3.7907872784       -0.6576490294
 C          1.1702986149        5.0031412818       -0.0538413960
 C          0.2205061426        6.0139479348       -0.0352548213
 C         -1.0319446957        5.8186292210       -0.5908356272
 C         -1.3253567401        4.6018310408       -1.2006375445
 C         -0.3758540597        3.5722212768       -1.2747087098
 O         -2.5698342222        4.4494994278       -1.7182199166
 C         -5.2683933840       -1.0661661447       -2.5711860579
 C         -6.4936366374       -1.7272889543       -2.5137639222
 C         -6.8940252085       -2.3623796221       -1.3513069308
 C         -6.0788833976       -2.3582046955       -0.2210630746
 C         -4.8109890434       -1.7429843775       -0.2595271009
 C         -4.4605946830       -1.0982551407       -1.4462701835
 B         -3.9689220033       -1.7637500770        1.0268740299
 C         -2.5518337446       -1.2657011129        1.3389231430
 C         -1.5759872647       -0.8890589141        0.4013870490
 C         -0.4033470495       -0.2755387116        0.7691935219
 C         -0.1542275485       -0.0090693472        2.1116535916
 N          0.9806578275        0.7806351850        2.4552259432
 C          0.8000553526        2.1365126732        2.6361960557
 C         -0.4847189263        2.6856955474        2.5238246108
 C         -0.7000971768        4.0276290971        2.7381058252
 C          0.3620132937        4.8523019133        3.0720613230
 C          1.6357943806        4.3205689217        3.1528724475
 C          1.8856672440        2.9751997084        2.9266397058
 C          3.3085963550        2.4613975880        2.9693155758
 C          4.1326595880        3.2353188371        1.9238506474
 C          3.8853642296        2.6927024647        4.3788271259
 C          3.3825291424        0.9811150583        2.6647224914
 C          4.6156644020        0.3477487812        2.6275297050
 C          4.7333386644       -1.0115021815        2.3993708072
 C          3.5926399286       -1.7760653089        2.2170569520
 C          2.3553468373       -1.1725344999        2.2434833013
 C          2.2318821591        0.2077279342        2.4493889708
 C         -1.0375596746       -0.4630473354        3.0846095937
 C         -2.2103199217       -1.1101111958        2.7018501326
 O         -2.9841753173       -1.5541123482        3.7348920532
 C         -4.1749086481       -2.1839975151        3.5240956411
 C         -4.8427340943       -2.6949487330        4.6312855161
 C         -6.0736318158       -3.3093277325        4.4545324269
 C         -6.6559284021       -3.4040650016        3.2003921276
 C         -5.9863379467       -2.8815386937        2.0980183306
 C         -4.7250317953       -2.2841374521        2.2398468397
 O         -6.5965842023       -2.9681597929        0.8862709177
 H         -6.7140657930        0.3958470593       -4.3766288459
 H         -6.1725340962       -0.9865981072       -5.3228701205
 H         -5.4660084264        0.6017705324       -5.6079865513
 H         -3.2187512638       -0.7947068793       -5.3019532724
 H         -4.2512613729       -2.1679963665       -4.8882232851
 H         -2.9956177741       -1.6663286113       -3.7726074402
 H         -5.9569853436        2.0336698384       -3.2610019019
 H         -4.9482694512        4.0789722218       -2.3738348998
 H         -2.1082065522        0.1893973677       -3.2698041497
 H         -0.1472243304       -0.0942828359       -3.5609897192
 H          1.6894784530       -1.6795875058       -3.2569520202
 H          1.2946126091       -2.0765035176       -0.6252365123
 H          0.6110737216       -4.1878579232        0.3698072284
 H          2.2615683545       -6.0241742816        0.6349029284
 H          4.5690854576       -5.6829649816       -0.0791676388
 H          7.0955145911       -4.5003001111       -2.5746504371
 H          5.4296575555       -4.4096968361       -3.1463923465
 H          5.8746051738       -5.5785435925       -1.9026052078
 H          6.4540373532       -4.7396092699        0.4677465960
 H          7.6652542912       -3.6572368074       -0.2064737559
 H          6.3740458382       -3.0106735080        0.8069967090
 H          8.0837988787       -2.5505777962       -2.0283790247
 H          8.6118539519       -0.3894200543       -3.0290732395
 H          6.7996430521        1.2620032645       -3.4077603312
 H          4.5143318644        0.7356883670       -2.7306664189
 H          3.4837660131        0.9614843229       -0.4101721632
 H          2.1410522820        5.1458232001        0.3916219992
 H          0.4596051126        6.9601392177        0.4247890317
 H         -1.7827606410        6.5925125701       -0.5646245011
 H         -7.1533233854       -1.7489148884       -3.3662311840
 H         -7.8523516910       -2.8567928235       -1.2983495562
 H         -3.5211891550       -0.5745639502       -1.4678166977
 H         -1.7561026605       -1.0790023304       -0.6430889285
 H          0.3085015889        0.0467294681        0.0288973321
 H         -1.3122808246        2.0483137603        2.2593597735
 H         -1.6957005257        4.4321003735        2.6419084482
 H          0.2013249762        5.9031171008        3.2553564969
 H          2.4555286696        4.9798717759        3.3932435832
 H          3.6682704464        3.1305502855        0.9468193568
 H          4.1775503046        4.2907798135        2.1758992356
 H          5.1493586618        2.8571093362        1.8713353305
 H          3.3130753129        2.1276661785        5.1120564997
 H          4.9213135465        2.3695201786        4.4283263120
 H          3.8409676162        3.7445880476        4.6456475568
 H          5.5147166162        0.9223987732        2.7875039147
 H          5.7111980056       -1.4688181244        2.3849742754
 H          3.6653793665       -2.8402271874        2.0556017310
 H          1.4666502425       -1.7669770654        2.1099946570
 H         -0.8351135338       -0.3037724181        4.1325164872
 H         -4.4004306777       -2.6046421550        5.6107829607
 H         -6.5917021245       -3.7126104313        5.3110335085
 H         -7.6193215326       -3.8700535667        3.0668965525
