89
 energy: -139.084044542146 gnorm: 0.000108129512 xtb: 6.7.1 (edcfbbe)
C            9.64535968313379       -1.99178435018055       -2.55981598738390
C            9.66766277118612       -0.85576338635972       -1.76430363930351
C            8.52109872791141       -0.42481022523291       -1.13454831704450
C            7.31040852383932       -1.12006062967473       -1.27962009237294
C            6.13351043327176       -0.62535234694188       -0.59726591128002
C            4.90413439321246       -1.26015362176477       -0.58781386818512
C            3.84586191109422       -0.67413334357680        0.12719029638261
C            2.52614872055251       -1.21467877986924        0.22914587391427
C            1.55795493276607       -0.52042417467276        0.98767213240238
C            0.27870572669097       -0.99215435786831        1.12211917169428
C           -0.10261837188290       -2.18294201932903        0.49567161602324
N           -1.41295078144642       -2.66422271007691        0.62437664057448
C           -1.77330220017606       -3.94382889112803        0.99449822790936
C           -0.97174706014181       -5.02064805770417        1.34657100718897
C           -1.59749055460459       -6.20174913858213        1.69953478111145
C           -2.98566426247367       -6.31278013727044        1.71312855792219
C           -3.78949437480606       -5.23567679828541        1.38859545862907
C           -3.18458452598079       -4.03985298117301        1.03102595601205
C           -3.69153682761123       -2.74478992713398        0.66675303695274
C           -4.97463966854215       -2.23650321723065        0.53102456843541
C           -5.09727968328912       -0.91141808595654        0.14708046760805
C           -3.95698074343109       -0.11974976508977       -0.11655217665256
C           -2.67825750772084       -0.60425669311739        0.00614388946793
C           -2.55481862573157       -1.92849879499016        0.42367246001510
C           -4.36557914231598        1.27552619623315       -0.52124873340866
C           -3.78060328725375        2.33694078113452        0.37995657429985
C           -3.92632330778163        2.47461115387929        1.74269859611680
C           -3.28133662417233        3.53087737902078        2.37238320234189
C           -2.50786656352259        4.42448209420884        1.64685326312409
C           -2.35924440440911        4.28819715649490        0.27578997930599
C           -3.00056770055332        3.23756530729682       -0.35931704365512
C           -3.03626211420689        2.83813921452282       -1.75754147962113
C           -2.44503687093702        3.39117027612307       -2.88134184356023
C           -2.66164755037363        2.78733181495047       -4.10964569075950
C           -3.45209447849648        1.65294558160163       -4.21654870495722
C           -4.04709597705490        1.09221077647319       -3.09418130966387
C           -3.83420597737077        1.69064741221421       -1.87202412951608
C           -5.87015777761530        1.18995465537999       -0.46203029487870
C           -6.79279887801824        2.17483805376404       -0.73520096881401
C           -8.14204295919669        1.86884522022796       -0.61368598266153
C           -8.55084116425811        0.60089818335756       -0.22602968913730
C           -7.62584786873552       -0.39236331269270        0.04906299221382
C           -6.27661794450583       -0.09537098012075       -0.07026156258084
C            0.83914340439586       -2.88361014641200       -0.26174717330807
C            2.12293989038611       -2.41356476633483       -0.39169436020345
N            4.09069334123638        0.50805070858995        0.76777996462474
C            5.25897415140760        1.09372062441050        0.74002145998789
C            5.45196301991694        2.36137395030244        1.44169410452155
C            6.69792303253569        2.98375039542606        1.43657625928720
C            6.87846241680281        4.18149796009712        2.10072660809579
C            5.81926364304732        4.76909813153099        2.77442223956699
C            4.57620790271707        4.15549235069808        2.78168578865772
C            4.39108581553468        2.95774024253185        2.11943440180334
N            6.26903736222894        0.54953783233362        0.09050127807415
C            7.30420890175561       -2.26437033522246       -2.08794997749187
C            8.45642057167686       -2.68890813455219       -2.71564018716134
H           10.54338954291439       -2.33008421294137       -3.05465883799063
H           10.58859714243092       -0.30460105786992       -1.63733124840849
H            8.53437099177894        0.45803235364944       -0.51347425945057
H            4.75828050954340       -2.18939751558284       -1.11052666322424
H            1.85618349190166        0.39469196435083        1.47557987078476
H           -0.43809082562373       -0.46043067628980        1.73111016736954
H            0.10403264372380       -4.93613637811577        1.35687455652082
H           -0.99665404048511       -7.05570153127280        1.97480531657692
H           -3.43722736621314       -7.25320038653299        1.99153880971818
H           -4.86543378229650       -5.31909966869764        1.41608984984320
H           -5.84065552189174       -2.85267320655904        0.71731032702034
H           -1.81715220046394        0.00641939694976       -0.21787256875466
H           -4.52870068495757        1.77727180610375        2.30693781863704
H           -3.38312594449021        3.65754140038989        3.44023765707852
H           -2.01486831104426        5.23825787181922        2.15866658898071
H           -1.75534838138063        4.98650791422242       -0.28443961368694
H           -1.82868282398951        4.27447961517894       -2.80336955090231
H           -2.20908477691683        3.20560189484482       -4.99698974571228
H           -3.60702297956045        1.19995648833093       -5.18473262734053
H           -4.66314226869119        0.20846019928648       -3.17662055371124
H           -6.47339052412348        3.16172658405548       -1.03713226783774
H           -8.88198354823180        2.62703270005019       -0.82347669215699
H           -9.60608407812601        0.38680480726582       -0.13796179931845
H           -7.94930031490758       -1.37758095650370        0.35045615644679
H            0.54047215276142       -3.79096269534324       -0.76655387345385
H            2.82052618675029       -2.97718899339387       -0.99081886619559
H            7.51281482896776        2.51445179597086        0.90693511248776
H            7.84640797749037        4.66081321783461        2.09500708683760
H            5.96226485540096        5.70549193748942        3.29351743777415
H            3.75101354146093        4.61469192712559        3.30613387167464
H            3.42886206405364        2.46884495991720        2.11552998751867
H            6.39420862607247       -2.82550676740886       -2.23469262358639
H            8.42999247594338       -3.57347858585125       -3.33611713055750
