89
 energy: -139.083915250878 gnorm: 0.000071333777 xtb: 6.7.1 (edcfbbe)
C            9.93212767949312       -1.97254927910099       -1.97224163685024
C            9.81665116938197       -0.67565618977131       -1.49388984172117
C            8.60795659691332       -0.21261207167265       -1.02329932474941
C            7.47060229604813       -1.03539566124983       -1.01692567223217
C            6.22523693360437       -0.50349392461558       -0.50717459902667
C            5.01265769402514       -1.17037102646818       -0.53675276010494
C            3.88579094592373       -0.54700689956809        0.02322346635127
C            2.57900699127743       -1.12522688170323        0.08831398365135
C            1.58270477967164       -0.48728574391059        0.85866843424309
C            0.32182446799153       -1.01152709710827        0.97428283587835
C           -0.01525596366949       -2.19264463396625        0.30512199989389
N           -1.30277905268200       -2.73349830779159        0.42225397183538
C           -1.60121411518289       -4.04735706468519        0.72421578246215
C           -0.74909561024636       -5.10875176502635        0.99557437867545
C           -1.31773271698010       -6.33372217847568        1.29104559503680
C           -2.69939418860516       -6.50389840126558        1.32785426574972
C           -3.55335632494721       -5.44355590626562        1.08761173658805
C           -3.00584197512852       -4.20462807462574        0.78914689146053
C           -3.57443176677761       -2.91190806355283        0.52134925467856
C           -4.88061783882929       -2.44979749907372        0.46423316676648
C           -5.06914746870671       -1.10751817874707        0.18011794789146
C           -3.97104608246600       -0.25469426481318       -0.07112562402784
C           -2.67079849971324       -0.69376123019094       -0.02947619252248
C           -2.47919629345785       -2.03536779404096        0.29773473349836
C           -4.44773827304396        1.14915676927276       -0.35416224644664
C           -3.85104339493583        2.16320939318009        0.59260827099936
C           -3.93013873172043        2.19749712824555        1.96735084867121
C           -3.28315018418756        3.22526065810409        2.64064441459189
C           -2.57271592433028        4.19253510977551        1.94576331164074
C           -2.49147639732676        4.16059129401649        0.56270127546643
C           -3.13562613008526        3.13919039940415       -0.11577514572058
C           -3.23269364314546        2.84135618791356       -1.53624181168160
C           -2.71976178280884        3.49511600327202       -2.64430096679897
C           -2.98478022053665        2.97654298315255       -3.90172508927484
C           -3.74592915402297        1.82723395989977       -4.05271854469836
C           -4.26203178239942        1.16545651605431       -2.94646231357971
C           -4.00092549181465        1.67904143131461       -1.69541980519981
C           -5.94363954645369        1.00179900507113       -0.23176561320172
C           -6.91229797597544        1.96845934864115       -0.38398972660814
C           -8.24261564224524        1.60204229893745       -0.22615196489619
C           -8.58778300974560        0.29281242868562        0.07694549496969
C           -7.61642923028625       -0.68220943435579        0.23068835468397
C           -6.28566380214273       -0.32466369127149        0.07539764842870
C            0.95116954458297       -2.82696393444407       -0.47997690922500
C            2.21961354786205       -2.31077503929976       -0.58219637285629
N            4.04689888936500        0.70019439753611        0.55794483742370
C            5.19639232868566        1.32314122733554        0.54910832086035
C            5.29465911026792        2.67056995982237        1.10693891605784
C            6.53482692274917        3.29333483769741        1.22410822550551
C            6.62385303164048        4.56940739352861        1.74575313984259
C            5.47840770062923        5.23518645519885        2.15286501520188
C            4.24111068449978        4.62065102552192        2.03795739092519
C            4.14702176738703        3.34441737601418        1.51832925860479
N            6.26908488830550        0.74878365531276        0.04263173570499
C            7.60423649851080       -2.34319755526022       -1.50170808958754
C            8.81814185270896       -2.79899455131083       -1.97111980989863
H           10.87953616643529       -2.33685301093791       -2.34033053810435
H           10.67886294943885       -0.02403510449744       -1.48962228480859
H            8.51261354015117        0.79712170501511       -0.65334303435827
H            4.93223432079437       -2.15377711635853       -0.96664041465954
H            1.84656731061474        0.41892030107087        1.38195243049571
H           -0.41233274595287       -0.52992793586470        1.60374782577847
H            0.32234747638970       -4.98109921285296        0.99045930199407
H           -0.67599366116190       -7.17604328870373        1.50240246997086
H           -3.10557103225995       -7.47725440758726        1.55887336480769
H           -4.62408264183732       -5.57250918101749        1.13500361385589
H           -5.71406160751295       -3.11257287156017        0.63866319231591
H           -1.84441748252279       -0.03399622902777       -0.24451363759600
H           -4.48282543431603        1.44251126916801        2.50776050913695
H           -3.33325525402731        3.27120111364948        3.71864170864292
H           -2.07638235284986        4.98189509173039        2.49149501611887
H           -1.93667113309052        4.91598287918909        0.02622342021893
H           -2.12686413415056        4.39071415761870       -2.53211991193336
H           -2.59400541070911        3.47428127668464       -4.77732306618609
H           -3.94028682719358        1.44229816584542       -5.04297520724775
H           -4.85564986524582        0.27029771284649       -3.06316954959723
H           -6.64257225927559        2.98753000621165       -0.62036544693601
H           -9.01783531973685        2.34519324721460       -0.34078211783580
H           -9.62946592738722        0.03177143707963        0.19478928220951
H           -7.89034213615784       -1.69965411947563        0.46710012113491
H            0.68348855132367       -3.71802820837150       -1.02904045866744
H            2.93611714950152       -2.81767606956830       -1.20932719595529
H            7.41780596772182        2.76113076140564        0.90466563691120
H            7.58738471565727        5.04909628596095        1.83623209118976
H            5.54986790773621        6.23345077992356        2.55921663150103
H            3.34893320024478        5.14110159360446        2.35416624569747
H            3.19041774426108        2.85441370030806        1.41794713329064
H            6.75878413073286       -3.01386387915804       -1.50528495929215
H            8.90069421643656       -3.81191316909741       -2.33902680373587
