  89
       -139.15904512
 C          9.9819322191       -2.3587166279       -1.2880835734
 C          9.8096571710       -0.9930665822       -1.4477116456
 C          8.6058794438       -0.4033479438       -1.1149045145
 C          7.5530670921       -1.1741601107       -0.6253158685
 C          6.2840597121       -0.5169719519       -0.2860912551
 C          5.0599277467       -1.1838499862       -0.3187119405
 C          3.9249195850       -0.4520100404        0.0295295621
 C          2.5805756181       -1.0383585885        0.0571422524
 C          1.6066415785       -0.4611771458        0.8721536343
 C          0.3416294313       -1.0013921374        0.9540130575
 C          0.0149269810       -2.1300029994        0.2036198193
 N         -1.2601453005       -2.6968211344        0.2956371960
 C         -1.5336296834       -4.0345202527        0.5133763574
 C         -0.6629141456       -5.0975624553        0.7034566871
 C         -1.2086846570       -6.3463123178        0.9330197791
 C         -2.5870966581       -6.5396947571        0.9842846646
 C         -3.4580276116       -5.4806251771        0.8246052984
 C         -2.9329451218       -4.2163486973        0.5925868562
 C         -3.5270707639       -2.9210113529        0.4126553870
 C         -4.8460551666       -2.4849179453        0.3896207225
 C         -5.0657936708       -1.1374673845        0.1772670971
 C         -3.9899681582       -0.2499436000       -0.0357135403
 C         -2.6781571639       -0.6607470596       -0.0187058721
 C         -2.4564639708       -2.0108389568        0.2339352614
 C         -4.4993245661        1.1524234936       -0.2652767091
 C         -3.9110765899        2.1580147452        0.6936518080
 C         -3.9694493237        2.1616781686        2.0699113279
 C         -3.3389175608        3.1915789467        2.7553661473
 C         -2.6642870569        4.1915644482        2.0711658411
 C         -2.6036619439        4.1908054444        0.6867104724
 C         -3.2317948882        3.1675089063       -0.0038115746
 C         -3.3443591036        2.8988010611       -1.4288881648
 C         -2.8658319105        3.5889718581       -2.5303286040
 C         -3.1386722491        3.0913927428       -3.7945745825
 C         -3.8742595885        1.9272395430       -3.9587271533
 C         -4.3556448909        1.2291428773       -2.8592627270
 C         -4.0866233399        1.7217688129       -1.6014652462
 C         -5.9911457368        0.9686826150       -0.1323423380
 C         -6.9806394779        1.9209713437       -0.2337483908
 C         -8.3016004586        1.5202984745       -0.0821568369
 C         -8.6162030706        0.1922954633        0.1632059725
 C         -7.6224979871       -0.7679817669        0.2651836348
 C         -6.3022438915       -0.3757673632        0.1165152380
 C          0.9734247869       -2.6933944033       -0.6361413168
 C          2.2425834600       -2.1565857666       -0.7027123441
 N          4.0210414989        0.8271280503        0.3852532194
 C          5.2239548457        1.3892860018        0.3741953925
 C          5.3146510566        2.8014449295        0.7574127864
 C          6.5594305946        3.4106186246        0.9004753310
 C          6.6426224524        4.7405984560        1.2650228471
 C          5.4882218601        5.4740510062        1.4898834647
 C          4.2473025422        4.8731810660        1.3484582404
 C          4.1575222000        3.5436232628        0.9841349432
 N          6.3521459821        0.7692383116        0.0473095575
 C          7.7370444185       -2.5447596873       -0.4599929329
 C          8.9456350699       -3.1301056824       -0.7885170421
 H         10.9233408256       -2.8208551333       -1.5465301067
 H         10.6179530825       -0.3882286836       -1.8318772166
 H          8.4558547083        0.6587848165       -1.2315523726
 H          4.9963292785       -2.2217088224       -0.5985067061
 H          1.8718897437        0.4083794300        1.4527885606
 H         -0.3951828847       -0.5675399432        1.6132684351
 H          0.4071543194       -4.9563641204        0.6869490501
 H         -0.5510225906       -7.1903048941        1.0801244690
 H         -2.9745262451       -7.5317221418        1.1624475210
 H         -4.5260763347       -5.6265379234        0.8829070933
 H         -5.6621379254       -3.1764506042        0.5313980804
 H         -1.8691682234        0.0302504514       -0.2014430473
 H         -4.4947633990        1.3816358393        2.6018908094
 H         -3.3740069511        3.2139337278        3.8347577176
 H         -2.1803964567        4.9821052031        2.6262805113
 H         -2.0774085935        4.9718824694        0.1582978242
 H         -2.2934029064        4.4965893793       -2.4079902528
 H         -2.7747376689        3.6176857071       -4.6652704027
 H         -4.0760959479        1.5595698232       -4.9541525025
 H         -4.9295227196        0.3224981938       -2.9857797360
 H         -6.7338468952        2.9551847004       -0.4259101175
 H         -9.0929642374        2.2515758963       -0.1565787225
 H         -9.6510794259       -0.0967068975        0.2769464314
 H         -7.8732976798       -1.8007911625        0.4568470478
 H          0.7099749157       -3.5434796662       -1.2475995986
 H          2.9638018650       -2.5970713156       -1.3748784578
 H          7.4476316937        2.8237238614        0.7258761703
 H          7.6094370758        5.2096924047        1.3763532649
 H          5.5558931636        6.5139252712        1.7752660295
 H          3.3480582247        5.4459200508        1.5234025430
 H          3.1995991828        3.0615769555        0.8664635382
 H          6.9448224008       -3.1541151885       -0.0502898975
 H          9.0809178344       -4.1931545572       -0.6520634275
