89
 energy: -139.158759809978 gnorm: 0.000036853315 xtb: 6.7.1 (edcfbbe)
C            7.91423842131009        3.44836929812142       -3.44331783336036
C            6.53402333213089        3.55041899985463       -3.38871910223995
C            5.80411276353027        2.70172937583618       -2.57736214095544
C            6.45104134735082        1.73927936535032       -1.80606757865976
C            5.70942418738232        0.81839999389621       -0.93475497603830
C            4.39219879577614        0.43816653345534       -1.19052057097940
C            3.80097886136451       -0.45302550535609       -0.29548373781690
C            2.42834006423112       -0.94567441170230       -0.45825163668933
C            2.08114923258687       -2.18032229619181        0.08942119238224
C            0.80600372880210       -2.68316711621930       -0.05415236456563
C           -0.15685077946193       -1.95595268802246       -0.75148972009677
N           -1.44818170710930       -2.46903451279600       -0.91408486947820
C           -1.76207829479763       -3.73495866170639       -1.37221533967610
C           -0.92424796934490       -4.75678862638954       -1.79441493507157
C           -1.50826615446260       -5.92774461975666       -2.23881192172730
C           -2.89210860773370       -6.08281293675526       -2.27461574031239
C           -3.73099728987819       -5.05970563146961       -1.88078677002069
C           -3.16740659564550       -3.87334742270150       -1.43018184952187
C           -3.72258740991131       -2.62746370593668       -0.97981522717848
C           -5.02847981305866       -2.18303498683619       -0.81358577610173
C           -5.20667125774328       -0.89952214602972       -0.33403214433385
C           -4.10173447881402       -0.08600900078664       -0.00561380335631
C           -2.80226244926628       -0.50707385494465       -0.15924877530624
C           -2.62374451791809       -1.78730487349811       -0.67383160549897
C           -4.56646622603529        1.25473714841685        0.50894152743313
C           -4.06548841812475        1.56876401033331        1.89770520999700
C           -4.26384544060112        0.85498696614118        3.05895636228128
C           -3.70443618143788        1.33759655752122        4.23453747955337
C           -2.96315537490654        2.50965795981265        4.23978091164956
C           -2.76131896762525        3.22963731241463        3.07312228128009
C           -3.31690388220221        2.75459868437824        1.89662336556509
C           -3.28456372723056        3.27763593526489        0.53973436615181
C           -2.68380337262122        4.40726198249603        0.00906192189544
C           -2.82396241988750        4.65841592930176       -1.34659698210750
C           -3.54944581979417        3.79999908058302       -2.15909644216946
C           -4.15388442595320        2.66536589575470       -1.63427703020037
C           -4.01680943241414        2.41322065813980       -0.28697198368930
C           -6.06717610782718        1.11701325449891        0.42861511428808
C           -7.02816030215800        2.04260761274548        0.76920243471573
C           -8.36395947963664        1.69573396601488        0.61487601288697
C           -8.72067142866150        0.44662950862540        0.12993872883794
C           -7.75560862198731       -0.48663663828231       -0.21311679028427
C           -6.42081904960077       -0.14798332547531       -0.06224886786618
C            0.17797175916805       -0.71402794703112       -1.28667677437830
C            1.45625429282807       -0.21577513295030       -1.13894589796568
N            4.47916839470925       -0.92286890568255        0.74874812649235
C            5.73143902693852       -0.51323034398796        0.91525673332673
C            6.46875823689830       -1.04052703378752        2.06742453677233
C            7.79427203543908       -0.66914764495627        2.28263710973568
C            8.48768085488459       -1.17027066918994        3.36727679478481
C            7.86738876922044       -2.04367349948017        4.24678942459448
C            6.54780417130684       -2.41373952383001        4.03987916404623
C            5.84941817670842       -1.91627902177548        2.95677421010542
N            6.36754773327130        0.33557961870262        0.11588190950618
C            7.84115074085404        1.65323069414309       -1.85649546842537
C            8.56624874938658        2.49905904466241       -2.67277707820866
H            8.48015284335299        4.11080898214246       -4.08165358923553
H            6.02409670953831        4.29711289525675       -3.98000059211960
H            4.73020975391249        2.80610570359613       -2.52761262074625
H            3.87037048851616        0.78120761362472       -2.06790266765350
H            2.83342942028316       -2.73349396438996        0.62951001605912
H            0.54006755994289       -3.63288480987017        0.38516567209442
H            0.14896162991150       -4.64065723506342       -1.78942668570070
H           -0.87703648433472       -6.73931060391876       -2.56942221806571
H           -3.30969125842478       -7.01463062660692       -2.62575397599876
H           -4.80363699756055       -5.17303613218803       -1.92513027346909
H           -5.86630667796530       -2.82096706517543       -1.04889388936015
H           -1.96993633273259        0.12245086545002        0.11709292332027
H           -4.84209843361431       -0.05759820183432        3.05369474549244
H           -3.84879898511082        0.79370972449115        5.15650549294940
H           -2.53784000372533        2.86577470103560        5.16690270788348
H           -2.18362819948220        4.14213854106887        3.08266150793675
H           -2.11803546565701        5.07906693292696        0.63760722882669
H           -2.36270083256573        5.53543579445322       -1.77738363897086
H           -3.64596394968420        4.01696600812675       -3.21291965609830
H           -4.71964126673759        1.99588645718816       -2.26605880888461
H           -6.74834425049049        3.01527173625798        1.14747932430454
H           -9.13363960518119        2.40712563224634        0.87586964867513
H           -9.76631535147408        0.19845390699461        0.01837109601062
H           -8.03941055952387       -1.45794908805612       -0.59037006923422
H           -0.56483196689276       -0.15065272024834       -1.83162595142227
H            1.69107143323105        0.75574602873086       -1.54729062343215
H            8.26049671416835        0.01479632722816        1.59095485185667
H            9.51551705941079       -0.88034658357040        3.53087782357970
H            8.41169919465387       -2.43438481194799        5.09434163769366
H            6.06415478685451       -3.09211383195510        4.72781039876395
H            4.82059302728885       -2.19042341253235        2.78370689310295
H            8.33360569060068        0.90901901729629       -1.25008357851784
H            9.64291163726431        2.42038251631166       -2.70965131364004
