89
 energy: -139.159138523932 gnorm: 0.000051543912 xtb: 6.7.1 (edcfbbe)
C            9.98424541264837       -2.32983892248563       -1.30478341643157
C            9.80060297729913       -0.96566159903610       -1.46416577338446
C            8.59446910550928       -0.38501657682780       -1.12402107447780
C            7.55051880297960       -1.16358277484295       -0.62748667912648
C            6.27866721687761       -0.51491460091149       -0.28253147543970
C            5.05867730078386       -1.18990600345887       -0.30680949797658
C            3.92023121839307       -0.46282782531025        0.03992718703063
C            2.57833019720826       -1.05454630417491        0.07100690587373
C            1.60419571679143       -0.47945368429410        0.88722484098223
C            0.33952532223820       -1.02051235750012        0.96777185705175
C            0.01334260611407       -2.14731367033894        0.21451258482374
N           -1.26356852437906       -2.71075174300321        0.30175693753910
C           -1.54314217310785       -4.04745450628683        0.51710480798029
C           -0.67720877726872       -5.11412752135770        0.70851891626944
C           -1.22862996880731       -6.36085634857182        0.93530851628639
C           -2.60795495606410       -6.54871692258000        0.98217537110629
C           -3.47422596510004       -5.48608187990778        0.82069034779467
C           -2.94347456910574       -4.22366447777332        0.59157069372910
C           -3.53180426522405       -2.92574532583947        0.41089106055135
C           -4.84882788270788       -2.48389948658694        0.38402475059389
C           -5.06204408422153       -1.13522954425688        0.17263529297759
C           -3.98172796413540       -0.25206651010236       -0.03599305103490
C           -2.67183008484439       -0.66859188015729       -0.01536001907655
C           -2.45685610405807       -2.01986436774643        0.23662218190152
C           -4.48405793819158        1.15284427256552       -0.26488713899227
C           -3.89536901450284        2.15439393509318        0.69803373126484
C           -3.95616478524278        2.15409290724870        2.07422995085006
C           -3.32474848516348        3.18070932223285        2.76383440263525
C           -2.64739552580686        4.18166496625164        2.08372114029403
C           -2.58431498094029        4.18483399010565        0.69937881134417
C           -3.21290370024917        3.16461994212923        0.00476552473371
C           -3.32216851684314        2.89944472734352       -1.42123203532486
C           -2.83924390198527        3.59120863270176       -2.51974668861222
C           -3.10872928235418        3.09658509497773       -3.78582499753790
C           -3.84492499442463        1.93352570534395       -3.95472949521532
C           -4.33109885036110        1.23402335321783       -2.85827326444458
C           -4.06563742476824        1.72382555380385       -1.59857147505678
C           -5.97712200292650        0.97548630248120       -0.13670764053690
C           -6.96204538349757        1.93238381550031       -0.23958663902042
C           -8.28524113124985        1.53744007175423       -0.09245121411168
C           -8.60646313888553        0.21054809585121        0.15018813526086
C           -7.61740614911020       -0.75438075444874        0.25345602672181
C           -6.29493438435696       -0.36794748523579        0.10921957722582
C            0.97287272758060       -2.71036617086744       -0.62413185190483
C            2.24201169977160       -2.17297513711170       -0.68912034380666
N            4.00943937221667        0.81864371747653        0.38883110531546
C            5.20906836343891        1.38744076955676        0.37367066848987
C            5.29185777532139        2.80141607516748        0.75174432590472
C            6.53331655828232        3.41126929949285        0.91833423609854
C            6.60860052414947        4.74269642806648        1.27922799658021
C            5.44962768734535        5.47705218325461        1.47575021721253
C            4.21196611417062        4.87559480582133        1.31001783492258
C            4.13001952014445        3.54427883431601        0.95028276145417
N            6.33994138652216        0.77300482898828        0.04582867228423
C            7.74594105519568       -2.53266088284926       -0.46265772694140
C            8.95697782499509       -3.10885359634686       -0.79853629816204
H           10.92733851920429       -2.78496131258193       -1.56938655772480
H           10.60176911979600       -0.35487476775652       -1.85382702103502
H            8.43538879461728        0.67584200237678       -1.24044876873584
H            5.00012271910194       -2.22957999180467       -0.58070166286620
H            1.86878806832101        0.38950832618695        1.46905760666830
H           -0.39791268012914       -0.58816298624841        1.62734212550783
H            0.39344054315410       -4.97700561051768        0.69535349594626
H           -0.57484293617966       -7.20763624884803        1.08364554746320
H           -2.99988782079220       -7.53932362762525        1.15833489008784
H           -4.54296885477914       -5.62787068805373        0.87563757840155
H           -5.66836333265510       -3.17196693217250        0.52262724671317
H           -1.85924195884598        0.01908735764979       -0.19451435056935
H           -4.48381174449017        1.37341277019077        2.60298612094508
H           -3.36141884884188        3.19978900510237        3.84324779022992
H           -2.16300643589779        4.96970494772833        2.64202425117776
H           -2.05571923351589        4.96655911122122        0.17414416655451
H           -2.26595665787224        4.49775641824686       -2.39376342420247
H           -2.74137396946522        3.62413573400406       -4.65419773369227
H           -4.04340169584591        1.56776366652332       -4.95151930828409
H           -4.90560037210645        0.32833048786069       -2.98852907292845
H           -6.71003972813314        2.96572667399415       -0.42965476259372
H           -9.07312290878059        2.27236395633194       -0.16822893678671
H           -9.64294974640948       -0.07392971129879        0.26059741258937
H           -7.87344509285379       -1.78628664459588        0.44307317961598
H            0.71011432191752       -3.55987696484569       -1.23667329855708
H            2.96410031620053       -2.61203524645656       -1.36121634106374
H            7.42504251500366        2.82363695370054        0.76542068146719
H            7.57281244899988        5.21226586420120        1.40977565106665
H            5.51118018046547        6.51808492454855        1.75822878048848
H            3.30914742849551        5.44921437368429        1.46232476815589
H            3.17488213958213        3.06158391193426        0.81382782169164
H            6.96096317892516       -3.14795479737914       -0.04793252623292
H            9.10144269689956       -4.17082248285459       -0.66231571019820
