94
 energy: -150.410803037222 gnorm: 0.000100203106 xtb: 6.7.1 (edcfbbe)
N            1.92103198433408       10.06634273633413        0.01584751567058
C            1.35805958791285        9.06554830032741        0.01524223922182
C            0.66835189494445        7.83939861855810        0.01469759987005
N            1.34071730959858        6.68973793605458        0.00022782950496
C            0.68148413495892        5.52008634501965        0.00309678482843
C            1.39347877183468        4.28943695088793       -0.01063697667117
C            2.80101363366535        4.30497514339067       -0.02641971020064
C            3.51727020171635        3.14189009543765       -0.03462610192457
C            2.85485318304344        1.90053940266263       -0.03341563470218
C            3.61427902461913        0.64758264205450       -0.04191717827277
C            4.79162046134593        0.51580893097467        0.69580990200367
C            5.49710755995399       -0.66762734882515        0.70633480774078
C            5.05263918530518       -1.76321486625455       -0.03646510381643
N            5.76297319870920       -2.96515061424681       -0.02814536982193
C            7.16138162880317       -2.95129958971882        0.02981386669452
C            7.84713056360584       -3.91128546995836        0.77424149574533
C            9.22721677325208       -3.89497978154886        0.82481298332093
C            9.94314343711356       -2.92364733612754        0.14379242822263
C            9.26627743358268       -1.96614772003031       -0.59434922264957
C            7.88667597459610       -1.97729065355136       -0.65682323834075
C            5.07810300531615       -4.18378605358227       -0.07652153409109
C            5.60173773871165       -5.26104009553772       -0.79215222306674
C            4.92275304103667       -6.46290150631717       -0.83444585897966
C            3.71340326026796       -6.60997308940157       -0.17438016243449
C            3.18776165683976       -5.54253584439891        0.53558251656157
C            3.86230217881643       -4.33872554271641        0.59053608894644
C            3.88308535369375       -1.63424502659432       -0.78820994476735
C            3.17724238593376       -0.45140647984242       -0.78342151317375
C            1.47212250790355        1.88005680556163       -0.01910666572717
C            0.70549874779445        3.05058865657749       -0.00587010306742
C           -0.73601840544974        3.04439476670180        0.01645029386220
C           -1.49263440809614        1.86735783582323        0.02369954458000
C           -2.87548841196770        1.87598578346443        0.03763699382955
C           -3.62359441236100        0.61622639050168        0.04187025657883
C           -3.17721100039635       -0.47991117397820        0.78201513156349
C           -3.87173930341474       -1.66936352851984        0.78357540270033
C           -5.03869712230089       -1.80824017381050        0.02949549880222
N           -5.73667561550946       -3.01723127823430        0.01758252520916
C           -7.13492181570941       -3.01870493402348       -0.04509269508221
C           -7.87355683540561       -2.05294609648804        0.63895177205700
C           -9.25299110028316       -2.05765371748787        0.57193664961330
C           -9.91642815184546       -3.02298952606588       -0.16818628939645
C           -9.18719897178902       -3.98616630310117       -0.84667429307347
C           -7.80720260027514       -3.98661138329213       -0.79157295152179
C           -5.03926639725826       -4.22875297946844        0.06897225687400
C           -5.55305748998688       -5.31020336653899        0.78534672934913
C           -4.86151423217014       -6.50475859167568        0.83117115626958
C           -3.64934560071470       -6.64018953556081        0.17379604359807
C           -3.13359685072310       -5.56857496907700       -0.53713040478446
C           -3.82066283936920       -4.37202363750184       -0.59551972947660
C           -5.49254361392689       -0.71547574153820       -0.71183713299298
C           -4.79857794356466        0.47476975674733       -0.69773797848246
C           -3.54860903213790        3.11150529672331        0.04370563535501
C           -2.84227960595239        4.28069401384173        0.04213108953103
C           -1.43462953465814        4.27724803883677        0.02783192106724
C           -0.73315178412921        5.51396861729330        0.02279634736057
N           -1.40233976715897        6.67795086145422        0.03438601998047
C           -0.73988398471113        7.83327813223417        0.02910254123919
C           -1.44025264180961        9.05340945012611        0.03878078403912
N           -2.01170269301242       10.04933826717370        0.04695257653110
H            3.29523535402945        5.26464742388835       -0.03508109210818
H            4.59598984102839        3.17003603679351       -0.06728190285688
H            5.13878868699000        1.34268746842044        1.29712107053236
H            6.39389982008250       -0.75869284761828        1.30142235946293
H            7.28979629882596       -4.66188291329964        1.31530219991272
H            9.74682152901863       -4.64117302744112        1.40731732702194
H           11.02135210441830       -2.91297241478238        0.18797424827409
H            9.81689056018372       -1.20938823811660       -1.13302875386015
H            7.36068711275866       -1.23792513043591       -1.24276108443639
H            6.53811156258247       -5.14476125568655       -1.31772454613841
H            5.33712480708550       -7.28808720428292       -1.39432772544953
H            3.18488846889384       -7.55018786684766       -0.21233200781471
H            2.24918589028627       -5.65040091636843        1.05895150207266
H            3.45781952771085       -3.51223871041165        1.15620568310042
H            3.54076207276331       -2.46769650298528       -1.38409501578343
H            2.28891951638627       -0.36486499687098       -1.39151564321432
H            0.98068142998652        0.92056520730888        0.00743054344192
H           -0.99310518924153        0.91218191827448       -0.00716539211465
H           -2.29068765286574       -0.38592461649211        1.39162512484332
H           -3.52246529835075       -2.50047798514325        1.37867203113715
H           -7.35803360195256       -1.30757608900636        1.22657671902083
H           -9.81401558072827       -1.30719003795604        1.10867780195973
H          -10.99453953038595       -3.02472409969199       -0.21583576158556
H           -9.69629526218695       -4.73843020740730       -1.43064602305543
H           -7.23950799181110       -4.73091755615622       -1.33055236050431
H           -6.49168454409224       -5.20281155157679        1.30879081330010
H           -5.26824820861445       -7.33326067097386        1.39174840659651
H           -3.11095515000284       -7.57466328945974        0.21459444356422
H           -2.19288069273957       -5.66747802975734       -1.05841898893938
H           -3.42376868181731       -3.54223424181141       -1.16173336450896
H           -6.38740002437648       -0.81398092455537       -1.30865097381170
H           -5.15288171501492        1.29962491410708       -1.29768720899073
H           -4.62757437903680        3.13015743838857        0.07514728408681
H           -3.34465700849743        5.23606818090630        0.05524850789686
