94
 energy: -150.463943221090 gnorm: 0.000058638412 xtb: 6.7.1 (edcfbbe)
N            1.93143514270876       10.07419361238104        0.04626942789848
C            1.38708810033775        9.06614585735776        0.04295369494354
C            0.67894718110295        7.83831905247823        0.03864066501771
N            1.36392854995298        6.70740376043217        0.03867396781452
C            0.68878932280906        5.55908733245280        0.03503889324058
C            1.41500589285977        4.31987776617225        0.03301618738418
C            2.81549295281067        4.33120505119123        0.02983288205786
C            3.52741711010801        3.15948396970601        0.02630074504590
C            2.85724244498877        1.92865375269941        0.02966357832195
C            3.60205276300312        0.66696285376708        0.02735454622157
C            3.16217572780323       -0.42612378056508        0.77493052667482
C            3.85378300966959       -1.61693991501469        0.77045071829856
C            5.00887552923468       -1.76419491319155       -0.00129911079768
N            5.69912463304022       -2.97309465982638       -0.02257134826701
C            7.09531538786440       -2.98776500799922       -0.14985784222201
C            7.72151082403121       -3.96293978449143       -0.92466049049269
C            9.09788919284913       -3.97968218956150       -1.04123265791192
C            9.86823795216762       -3.02524106616493       -0.39738449819299
C            9.25012134960550       -2.05287690621534        0.37161247480246
C            7.87496514677678       -2.03275538191594        0.50117892591307
C            5.00339028187424       -4.18513814893790        0.08200710667474
C            3.76844140683152       -4.34929953763741       -0.54449787737647
C            3.08679308538492       -5.54571756307719       -0.43495435647365
C            3.62583524626469       -6.59706323683674        0.28814974793878
C            4.85592188628562       -6.44137111397722        0.90585471767418
C            5.54110021069969       -5.24572600067103        0.81002159157652
C            5.45404846697107       -0.67260925117844       -0.75086560296498
C            4.76625829459033        0.52076059454446       -0.72727807072371
C            1.46971523684191        1.91906133380722        0.03187162678024
C            0.71577479842313        3.09351253259353        0.03336509473048
C           -0.73950630406713        3.08777975195595        0.03404385757714
C           -1.48429615235022        1.90746125433567        0.03710980193293
C           -2.87178010120726        1.90650723894339        0.03348766554283
C           -3.60702114329305        0.63914739858839        0.03442028411617
C           -3.16470475621288       -0.44566993699271        0.79238253953948
C           -3.84768336680442       -1.64153769233333        0.79056262912344
C           -4.99518725495730       -1.80261134196665        0.01024492872879
N           -5.67628278556574       -3.01668595130253       -0.00913966318188
C           -7.07080544124129       -3.04237230246025       -0.15322558391073
C           -7.86531640319348       -2.08993036158333        0.48341190455641
C           -9.23856570106180       -2.12050937682687        0.33672877557608
C           -9.84004224525708       -3.10094371568452       -0.43521815195423
C           -9.05493119632768       -4.05299678325551       -1.06459847927326
C           -7.68027507067467       -4.02582406104214       -0.93087153077763
C           -4.97369338084012       -4.22330510372141        0.11102227507703
C           -5.51344222018666       -5.28304628516145        0.83880750941079
C           -4.82209264677517       -6.47380152700069        0.94985959564849
C           -3.58368072395567       -6.62531850988701        0.34796263969145
C           -3.04252472150497       -5.57478124695355       -0.37472419494898
C           -3.73029499432721       -4.38337076163910       -0.49962645579438
C           -5.44238158915334       -0.71925434032129       -0.75004612981539
C           -4.76413535121966        0.47958002842084       -0.72823585917248
C           -3.55162684060484        3.13192916585088        0.02480575712604
C           -2.84884146597145        4.30916480876177        0.02622552853416
C           -1.44831016696759        4.30864289000077        0.03078533262454
C           -0.73179271470029        5.55351400995433        0.03254026486412
N           -1.41591646188629        6.69649906498581        0.03188574152757
C           -0.73983225728601        7.83275716463946        0.03434778310529
C           -1.45750533500789        9.05502501590564        0.03271559111614
N           -2.00952433904659       10.05891921020982        0.03118064391703
H            3.31455248504614        5.28773560149988        0.03396366855887
H            4.60648533831839        3.18032820062588        0.04296308620150
H            2.28555382775988       -0.32860963087551        1.39850594731010
H            3.50896613416348       -2.44470238248699        1.37248889565448
H            7.12141817318237       -4.70282091823328       -1.43394869406889
H            9.57129113564630       -4.73896699014582       -1.64599928740691
H           10.94313278162515       -3.03957612639088       -0.49353306951053
H            9.84347157516050       -1.30893252314827        0.88240393883159
H            7.39524978189831       -1.28085138797497        1.11070943125011
H            3.35199852615443       -3.53518478431518       -1.11970250389089
H            2.13170711186987       -5.66042433717272       -0.92621112567984
H            3.09176517585670       -7.53153154678105        0.36874886860704
H            5.28236927551478       -7.25449263573411        1.47445627333490
H            6.49592836284392       -5.12332905875650        1.29996388520665
H            6.33954440579735       -0.77378355880114       -1.36077522865404
H            5.11487569413405        1.34293308280710       -1.33453369671281
H            0.97480660632748        0.96178363866666        0.00804320936553
H           -0.98229287460029        0.95374008207523        0.01854623385918
H           -2.29341220333283       -0.33743397858999        1.42167897179773
H           -3.50172936120473       -2.46259394610003        1.40106980282286
H           -7.39860434621803       -1.33165275107791        1.09513725589749
H           -9.84356651866619       -1.37836131770504        0.83634112957461
H          -10.91350338585270       -3.12333884584417       -0.54489301907902
H           -9.51529146658481       -4.81858306872386       -1.67148183662028
H           -7.06858467032387       -4.76385542267137       -1.42892273215735
H           -6.47488963831617       -5.16389776342667        1.31645052054028
H           -5.25042600947240       -7.28634550299960        1.51786969412979
H           -3.04483129985169       -7.55593720128162        0.44039933070126
H           -2.08079717120895       -5.68626692134467       -0.85360539127413
H           -3.31202163388773       -3.57012574635471       -1.07472269862733
H           -6.32182447919455       -0.83107510927375       -1.36679930827229
H           -5.11407804565366        1.29551268912190       -1.34312282564248
H           -4.63086723884724        3.14411218972483        0.03971401049425
H           -3.35528277344786        5.26181171735456        0.02771870111080
