94
 energy: -150.410731094324 gnorm: 0.000205527199 xtb: 6.7.1 (edcfbbe)
N            1.92506832324756       10.06295777434642       -0.01507099200832
C            1.36257565598924        9.06194453971567       -0.00699502373302
C            0.67301327668103        7.83569351702495        0.00203525518579
N            1.34526549634545        6.68607223429112        0.01542584787117
C            0.68581503048971        5.51650049955748        0.02301296027899
C            1.39763848963781        4.28572444009718        0.02905898840289
C            2.80527605146217        4.30117750755499        0.02575309558825
C            3.52146529431525        3.13804110992597        0.02754950344234
C            2.85882777054261        1.89691167297296        0.04012036505614
C            3.61787386510231        0.64372302419877        0.03923506624028
C            3.19504142709712       -0.45249044229996        0.79283804353730
C            3.89915662300020       -1.63634569449443        0.78625380211428
C            5.05202510058642       -1.76933881901993        0.00975641833733
N            5.75901355957206       -2.97289070867237       -0.01229887509493
C            7.15556149937439       -2.96262296592779       -0.10733698771982
C            7.81864346233254       -3.92344810765942       -0.87088253869948
C            9.19686033123723       -3.90968516523493       -0.95940864196630
C            9.93306758970418       -2.94036507289891       -0.29741653517023
C            9.27866738209745       -1.98252898732163        0.46030036970525
C            7.90126743924056       -1.99098761092547        0.56045986902882
C            5.07326726581848       -4.19008203374961        0.05609147566866
C            3.84095237956969       -4.34467441750241       -0.57999234142247
C            3.16595621041908       -5.54707254760195       -0.50439385564148
C            3.70703241266371       -6.61341432631203        0.19546689911468
C            4.93298774352816       -6.46678544896873        0.82422117574250
C            5.61294848303139       -5.26638893149442        0.76112383602174
C            5.48290481747681       -0.67600403373487       -0.74437626816666
C            4.77982959826081        0.50865040076885       -0.72181482327191
C            1.47606524895566        1.87638999160365        0.04599322181290
C            0.70942988929561        3.04698651451638        0.03739844008966
C           -0.73226384721629        3.04103004507015        0.03603132845157
C           -1.48927020398924        1.86417456813565        0.04424686637673
C           -2.87215263838413        1.87333354175718        0.03607093831108
C           -3.62123294413623        0.61417478121804        0.03647231222646
C           -3.19018356001793       -0.47756169318232        0.79194141283695
C           -3.88567933856336       -1.66651320313534        0.78783187069861
C           -5.03797820256058       -1.80920199293750        0.01223598060706
N           -5.73684815622618       -3.01757369059444       -0.00648153825423
C           -7.13352452741135       -3.01667439864694       -0.09955928178792
C           -7.88451619232992       -2.04807086453690        0.56675714325382
C           -9.26204886424401       -2.04840896981124        0.46821152275306
C           -9.91136999584598       -3.01217879312932       -0.28635022921154
C           -9.16991449543247       -3.97863047778118       -0.94667811601643
C           -7.79153239660875       -3.98361438573065       -0.85977458753125
C           -5.04258556833334       -4.22984060985291        0.06286748532663
C           -5.57350608354890       -5.30872342243794        0.77060326105402
C           -4.88497318057480       -6.50418033700671        0.83457281122077
C           -3.65907221449211       -6.64323296539699        0.20398581452690
C           -3.12667155148715       -5.57427924304244       -0.49854137841462
C           -3.81023641503601       -4.37679272641391       -0.57497326281612
C           -5.47673816185270       -0.72063859423145       -0.74423747871514
C           -4.78215833737021        0.46905285543246       -0.72433239690536
C           -3.54489589960949        3.10900413984475        0.02078374423747
C           -2.83829351501182        4.27797318826092        0.01919519362811
C           -1.43059206375156        4.27406483861927        0.02557932483345
C           -0.72891721552296        5.51064667466419        0.02093312060594
N           -1.39805005123641        6.67467940140814        0.01106950790733
C           -0.73528244410474        7.82988405657732       -0.00029889500573
C           -1.43506767944137        9.05025322839717       -0.01181564501144
N           -2.00608939657969       10.04646522327839       -0.02188477213598
H            3.29956546308497        5.26084928507366        0.02514250601189
H            4.60056102139605        3.16588188304267        0.04440331738481
H            2.31964740114790       -0.36285861438660        1.41894589214364
H            3.56827697537031       -2.46761628058732        1.39158076605241
H            7.24509312659184       -4.67245338828655       -1.39700648644442
H            9.69885059990781       -4.65617498982091       -1.55678733358540
H           11.00965158661675       -2.93148113971439       -0.37150602132416
H            9.84538331629070       -1.22750626996154        0.98451868410218
H            7.39283709205694       -1.25122419881733        1.16121416507107
H            3.42392885030108       -3.51907947779033       -1.13782313315559
H            2.21436250194847       -5.65470833393781       -1.00365131411162
H            3.17759478666304       -7.55227462700006        0.25002171385003
H            5.35977396381522       -7.29113471531959        1.37592774579827
H            6.56262195106780       -5.15038090097173        1.26233020388893
H            6.36673631869851       -0.76992302213835       -1.35810051934588
H            5.11571714906495        1.33371703227884       -1.33195872525840
H            0.98440635423528        0.91677268892713        0.02907406601680
H           -0.98967437271317        0.90863494656406        0.02926399151340
H           -2.31534008087979       -0.38039804932131        1.41768978988514
H           -3.54859002924052       -2.49423577775266        1.39459897769102
H           -7.38001182022128       -1.30364112242430        1.16505467581264
H           -9.83282768337255       -1.29557997238452        0.99117838813373
H          -10.98806799213477       -3.01009294475758       -0.35929316474026
H           -9.66796094508496       -4.72974644140356       -1.54155570331567
H           -7.21397868089567       -4.73038250626957       -1.38469893315723
H           -6.52313440972090       -5.19855685907140        1.27321556396524
H           -5.30497474100040       -7.33058696410306        1.38840595876103
H           -3.12294658669264       -7.57825225437791        0.25920027401075
H           -2.17518983512937       -5.67605323805234       -0.99923930208374
H           -3.39996988340094       -3.54918570534672       -1.13483209783685
H           -6.36005741572014       -0.82218153430413       -1.35748949819133
H           -5.12407100995499        1.29035122602694       -1.33620643956429
H           -4.62420726507060        3.12806210404349        0.03559622290350
H           -3.34044453079302        5.23355043167098        0.01669409866705
