94
 energy: -150.463877118516 gnorm: 0.000086713146 xtb: 6.7.1 (edcfbbe)
N            2.00070971149448       10.83313122703526        0.13381051397430
C            1.44995663027776        9.82858920633813        0.12771251408920
C            0.73390507708707        8.60538055664149        0.11941057379750
N            1.41148589237039        7.47002958288844        0.12140519122664
C            0.72885771558823        6.32615763637850        0.11428922705019
C            1.44689351593926        5.08218149142895        0.11145192341267
C            2.84736310903164        5.08552138180218        0.10001461929912
C            3.55203307257291        3.90956146103479        0.08650649363151
C            2.87398029557209        2.68328335693537        0.09418885311587
C            3.61273798043232        1.41800723679411        0.07335384972833
C            3.19629636458466        0.32966328684264        0.84030827617781
C            3.88385430754266       -0.86349236956305        0.81516918683169
C            5.00694053057577       -1.01913434966612       -0.00121971434318
N            5.69039257811414       -2.23081185650524       -0.04632645037554
C            7.07694202909727       -2.25444594815925       -0.25578122885917
C            7.64914957681489       -3.23553977043138       -1.06409730087956
C            9.01573869101074       -3.26085845460462       -1.26433482712237
C            9.82930228755555       -2.30926608992035       -0.67148162002367
C            9.26491797907489       -1.33175688614442        0.13157662452646
C            7.90032032540820       -1.30313217273846        0.34470732725194
C            4.99935172701027       -3.44060392143406        0.10696939782370
C            3.73357986267441       -3.61126186423648       -0.45251986023421
C            3.05902716574282       -4.80631625305904       -0.29437215260652
C            3.63544538505777       -5.84986235902862        0.41097018384080
C            4.89625351827100       -5.68797080694253        0.96147320842699
C            5.57495129566934       -4.49356118645026        0.81689222558762
C            5.42683359027558        0.06797349795870       -0.77186526901050
C            4.74693392466658        1.26502189158438       -0.72404954773190
C            1.48673993377572        2.68096889812015        0.11141486013402
C            0.73988147437950        3.86017554171272        0.11522041531034
C           -0.71545880617270        3.86396540253418        0.11177255512236
C           -1.46848062360459        2.68868127278069        0.11076545384678
C           -2.85556881668670        2.69818176764913        0.08608865805203
C           -3.60118043678666        1.43681776820184        0.07286661451696
C           -3.19480892249842        0.35403061069107        0.85297352349840
C           -3.89005274828039       -0.83481874939109        0.83787966433574
C           -5.01102855944455       -0.99180952368743        0.01886866776954
N           -5.70320460704171       -2.19891422366855       -0.01474290939369
C           -7.08934161730971       -2.21482624901491       -0.22743210126806
C           -7.90708610181204       -1.24958819180286        0.35837725270960
C           -9.27132966587332       -1.27086717560264        0.14216917130207
C           -9.84105252094415       -2.25468801663034       -0.64932504355387
C           -9.03316592646703       -3.22006029636991       -1.22748117094139
C           -7.66691209768018       -3.20223698598791       -1.02417154247536
C           -5.02167141799681       -3.41168761128216        0.15665304346264
C           -5.60705768236777       -4.45093558408910        0.87865351215308
C           -4.93738737393508       -5.64811179845560        1.04134869864728
C           -3.67604126939838       -5.82630780404245        0.49715467134067
C           -3.08994109910987       -4.79642573081316       -0.22019522941658
C           -3.75541961971744       -3.59881931532119       -0.39644442324577
C           -5.42014213687613        0.08934167169702       -0.76583796546646
C           -4.73265546429009        1.28243125992955       -0.72809660061452
C           -3.52709057323570        3.92789169929383        0.06576300176351
C           -2.81635319921817        5.10021349768056        0.07778888964074
C           -1.41604127915785        5.08961356094274        0.09931668964951
C           -0.69158642252617        6.32984508113352        0.10609056778557
N           -1.36828812918977        7.47724881404318        0.10260430473290
C           -0.68484821220590        8.60906707367679        0.10858168638544
C           -1.39458289399299        9.83595301262555        0.10350136635868
N           -1.94021480686950       10.84331978585298        0.09893846465735
H            3.35195996344478        6.03913817504300        0.10247160088274
H            4.63138881796060        3.92268206811949        0.09130005942087
H            2.34266455321639        0.43318400591554        1.49421087266506
H            3.55973611911296       -1.68683707357217        1.43447153043994
H            7.01476883487812       -3.97302473251495       -1.53379078655675
H            9.44693813376729       -4.02430913288108       -1.89486921706209
H           10.89615754802644       -2.32976340199056       -0.83353108024583
H            9.89268657863980       -0.59023092097776        0.60323672945133
H            7.46296590129779       -0.54703692467567        0.98034629555224
H            3.28745469209585       -2.80354621404094       -1.01431354065216
H            2.07960844719069       -4.92619772383349       -0.73374116490737
H            3.10656560135062       -6.78322726159437        0.52961235323196
H            5.35235696826365       -6.49512064647258        1.51536570548946
H            6.55439492978952       -4.36615691713748        1.25415341989572
H            6.28611045711759       -0.03913687587907       -1.41715546126147
H            5.07579606329614        2.08481749067805       -1.34546661075317
H            0.98687784305555        1.72600163869967        0.09406434066102
H           -0.97360923668162        1.73099185645686        0.10318327787777
H           -2.34323581238226        0.45911472114066        1.50930569741880
H           -3.57393680692835       -1.65343549477753        1.46749518148192
H           -7.46571123596833       -0.48846591923377        0.98517536336973
H           -9.89467365271086       -0.51851812278321        0.60242443728653
H          -10.90764288169554       -2.26942756850120       -0.81373150529395
H           -9.46853383589964       -3.98862957412986       -1.84886794659535
H           -7.03693213029553       -3.95060969397022       -1.48242721926310
H           -6.58688666981911       -4.31069122254943        1.31109559362601
H           -5.40096767617881       -6.44449273034138        1.60454419693508
H           -3.15418992047032       -6.76170581726547        0.63004122505194
H           -2.10996615891714       -4.92913163506026       -0.65460308138445
H           -3.30174531738818       -2.80179236776560       -0.96738844113680
H           -6.27736405774046       -0.01925662843889       -1.41361405084195
H           -5.05350720553309        2.09757116576304       -1.35975040413206
H           -4.60637020948247        3.94665595145138        0.06321127756248
H           -3.31594116141942        6.05644953990351        0.07230938637686
