  89
       -134.96625902
 C          4.6959174248        3.9280229564        2.5444443099
 C          3.5431338766        3.2299278918        1.8227575387
 C          2.3745843593        3.0884133043        2.8205612033
 C          3.0647309127        4.0102568914        0.6121484492
 C          3.4020213676        5.3245185011        0.3356763747
 C          2.9221846253        5.9594807342       -0.7990344401
 C          2.1180194888        5.2748247471       -1.6933987484
 C          1.7735573122        3.9610016681       -1.4417066904
 C          2.2174331499        3.3391599189       -0.2790812110
 N          1.9248332522        1.9905260372       -0.0177297803
 C          0.6375836327        1.4848266296        0.0496843813
 C         -0.4847928664        2.2757554036       -0.2623770195
 C         -1.7490763029        1.7586298621       -0.1957791536
 C         -1.9918214292        0.4230293925        0.2010831222
 C         -3.3301125525       -0.0751970290        0.2186145792
 C         -3.6730814317       -1.4126636262        0.4763666048
 C         -5.0115564327       -1.7718002336        0.4592546189
 C         -5.4980775896       -3.1096613765        0.7268478222
 C         -4.6560634884       -4.2260718653        0.8189563917
 C         -5.1733481886       -5.4777986132        1.0776550373
 C         -6.5378041444       -5.6574883173        1.2517973479
 C         -7.3851346198       -4.5626117336        1.1579825236
 C         -6.8768356594       -3.3094863311        0.8981796266
 N         -5.9486259401       -0.8166883645        0.1987154048
 C         -5.5875395246        0.4251792025       -0.0669724736
 C         -6.6291522341        1.4095789408       -0.3674579528
 C         -7.9632469752        1.0173780987       -0.4421602607
 C         -8.9461557585        1.9463341873       -0.7236194255
 C         -8.6082528247        3.2739736820       -0.9333728411
 C         -7.2819371254        3.6705778239       -0.8614969369
 C         -6.2961410081        2.7449231938       -0.5802264173
 N         -4.3344583980        0.8073802745       -0.0614887402
 C         -0.8661437249       -0.3339629808        0.5936176343
 C          0.3996475652        0.1822547020        0.5302377999
 C          3.0542107327        1.2648554849        0.3791761070
 C          3.9251344998        1.8523429375        1.3062286309
 C          5.0594908138        1.1615060273        1.7160846381
 C          5.3662552459       -0.1000016913        1.2350522104
 C          4.5253503265       -0.6610745632        0.2870971222
 C          3.3838429215        0.0257604744       -0.1851265394
 C          2.8364633281       -0.7734247355       -1.2457167960
 C          1.7695240350       -0.6205015499       -2.1269870262
 C          1.5152743462       -1.6213787734       -3.0416872089
 C          2.2985315904       -2.7727504099       -3.0897269165
 C          3.3781164505       -2.9391844820       -2.2444918891
 C          3.6564979641       -1.9241709417       -1.3408227202
 N          4.6656152293       -1.8452850674       -0.4039625376
 C          5.6797682248       -2.7923405251       -0.2001956537
 C          5.9398438778       -3.2683343368        1.0815546433
 C          6.9421425099       -4.1991570163        1.2817649529
 C          7.6837061839       -4.6683066182        0.2102333863
 C          7.4238345135       -4.1975127599       -1.0661245058
 C          6.4303948852       -3.2589388670       -1.2750319375
 H          4.9951307663        3.3544671713        3.4179394291
 H          4.3784120287        4.9064314511        2.8961838740
 H          5.5537157164        4.0476618478        1.8864450330
 H          1.5140656428        2.6010642018        2.3706471333
 H          2.6923254443        2.4973936394        3.6770327532
 H          2.0662856473        4.0718299799        3.1695366922
 H          4.0446375640        5.8744744352        1.0037609347
 H          3.1922882661        6.9868813978       -0.9907234282
 H          1.7692570277        5.7579708384       -2.5935205526
 H          1.1862516798        3.4037230522       -2.1555857240
 H         -0.3562393617        3.3125649318       -0.5305222620
 H         -2.5994189252        2.3753446132       -0.4407794044
 H         -2.9080931454       -2.1400853435        0.6861386436
 H         -3.5917274379       -4.1206416908        0.6736700409
 H         -4.5075048629       -6.3270025802        1.1422263206
 H         -6.9356141001       -6.6406936647        1.4548359416
 H         -8.4500457533       -4.6932290826        1.2892928066
 H         -7.5300466384       -2.4532935842        0.8279864187
 H         -8.2088450399       -0.0207805574       -0.2789299531
 H         -9.9798830633        1.6376509288       -0.7808894189
 H         -9.3780035602        3.9993922463       -1.1532186335
 H         -7.0193769478        4.7057618431       -1.0256823744
 H         -5.2591894416        3.0377148690       -0.5190323180
 H         -0.9924456216       -1.3341947223        0.9767442359
 H          1.2266109461       -0.4178589225        0.8742785367
 H          5.7279572675        1.6045452978        2.4350203728
 H          6.2541084084       -0.6138197728        1.5684838039
 H          1.1482015611        0.2597581569       -2.1005882661
 H          0.6889842804       -1.5163121228       -3.7285794857
 H          2.0605411555       -3.5467688341       -3.8039821411
 H          3.9813424212       -3.8336196657       -2.2818031759
 H          5.3452051386       -2.9151545463        1.9108587194
 H          7.1394204082       -4.5658196184        2.2781326306
 H          8.4625374553       -5.3984642019        0.3695524949
 H          8.0034712359       -4.5567320519       -1.9034522160
 H          6.2399630245       -2.8722814468       -2.2649884620
