  62
        -95.23817071
 C         -7.8323044756       -2.9143752598       -1.0376173555
 C         -7.8630871534       -1.6251108024       -1.5428389571
 C         -6.8839072227       -0.7145620865       -1.1916063300
 C         -5.8671228325       -1.0893456117       -0.3178633309
 N         -4.8734481537       -0.1691538215        0.0428119086
 C         -5.0873655516        1.1130648025        0.5073761467
 C         -6.2803260415        1.7669311341        0.7813260894
 C         -6.2113568033        3.0559685923        1.2740063505
 C         -4.9886829978        3.6848457869        1.4990352944
 C         -3.7983017521        3.0312476764        1.2505772126
 C         -3.8416696987        1.7344201966        0.7565070082
 C         -2.8306908230        0.7725428130        0.4157738870
 C         -1.4447835738        0.8044957010        0.4308951023
 C         -0.7353773360       -0.3156710057        0.0184870347
 C          0.7353606591       -0.3133645911        0.0288075310
 C          1.4354119023       -1.4418529393        0.4774712341
 C          2.8139534178       -1.4907097879        0.4982029957
 C          3.5121746576       -0.3820744159        0.0410313958
 C          2.8259351634        0.7756244307       -0.3911543125
 C          1.4399667550        0.8053121062       -0.3958972249
 C          3.8327057301        1.7351696239       -0.7500070709
 C          3.7835104929        3.0278670204       -1.2541798022
 C          4.9708163955        3.6793212087       -1.5221803789
 C          6.1959415728        3.0520328981       -1.3072135462
 C          6.2706987488        1.7669729696       -0.8048098618
 C          5.0812807523        1.1158222534       -0.5105048384
 N          4.8728960006       -0.1625858767       -0.0327917559
 C          5.8718838099       -1.0830656749        0.3119375411
 C          5.8339342097       -2.3790011086       -0.1951429413
 C          6.8187996253       -3.2851729169        0.1509342325
 C          7.8515166541       -2.9071907923        0.9928983568
 C          7.8936671670       -1.6168593520        1.4943095447
 C          6.9073785348       -0.7066910719        1.1625406879
 C         -1.4304496379       -1.4495102342       -0.4245789859
 C         -2.8086295705       -1.5008912357       -0.4550609595
 C         -3.5119204986       -0.3889607996       -0.0140595440
 C         -5.8410421997       -2.3837272653        0.1934797009
 C         -6.8186766426       -3.2904022077       -0.1720363123
 H         -8.5957977710       -3.6240153353       -1.3181197239
 H         -8.6490780959       -1.3285493500       -2.2213162925
 H         -6.8915274703        0.2847369020       -1.6005293668
 H         -7.2326068567        1.2819789140        0.6277974364
 H         -7.1261453235        3.5864538048        1.4938336537
 H         -4.9774038857        4.6943950730        1.8822606157
 H         -2.8503912009        3.5115053865        1.4412685902
 H         -0.9248141565        1.6848870278        0.7768833810
 H          0.8746316247       -2.2907546982        0.8400070926
 H          3.3297791819       -2.3627416235        0.8715242589
 H          0.9157579820        1.6818668077       -0.7451879257
 H          2.8335047523        3.5071372236       -1.4368466055
 H          4.9548577572        4.6853681233       -1.9140051775
 H          7.1080962097        3.5805896049       -1.5417872704
 H          7.2248040824        1.2831001326       -0.6594844671
 H          5.0392208581       -2.6623249407       -0.8690044579
 H          6.7838691557       -4.2891146000       -0.2454915319
 H          8.6213931674       -3.6161481177        1.2570811737
 H          8.6949863714       -1.3188293942        2.1541758066
 H          6.9243710509        0.2934075163        1.5693498787
 H         -0.8655552957       -2.3004908493       -0.7760087473
 H         -3.3201974330       -2.3764049608       -0.8256400504
 H         -5.0618261870       -2.6661590174        0.8856180554
 H         -6.7932164792       -4.2931737098        0.2281341037
