  62
        -95.13429836
 C         -7.8756973362       -3.0931876957       -0.0868429635
 C         -7.9803426981       -1.9724740999       -0.8980707045
 C         -6.9954064805       -1.0058232724       -0.8861882692
 C         -5.8871509538       -1.1490218738       -0.0481091406
 N         -4.8864213699       -0.1765928743       -0.0264172304
 C         -5.0911640515        1.1895038877        0.0931488747
 C         -6.2759643815        1.8962082197        0.2330728440
 C         -6.1954579855        3.2735598242        0.3702380667
 C         -4.9727249126        3.9308243272        0.3790378471
 C         -3.7835952080        3.2233943685        0.2713630165
 C         -3.8406613727        1.8480393800        0.1348961705
 C         -2.8289956834        0.8214691296        0.0361933091
 C         -1.4653484002        0.8629052911        0.0200831036
 C         -0.7039928732       -0.3541681369       -0.0773807280
 C          0.7013721472       -0.3558665772       -0.0284759531
 C          1.4569703606       -1.5771802764        0.1348088532
 C          2.8167830262       -1.6186869851        0.1649894240
 C          3.5335663293       -0.4182484309        0.0135890123
 C          2.8291472753        0.8191017702       -0.0922719048
 C          1.4654171157        0.8607566865       -0.1085961050
 C          3.8428678420        1.8465641850       -0.1540288513
 C          3.7897157909        3.2229297045       -0.2815023892
 C          4.9814031194        3.9314778737       -0.3438990346
 C          6.2036565209        3.2746215790       -0.2987388267
 C          6.2802706092        1.8962667538       -0.1707050660
 C          5.0917617172        1.1881234796       -0.0768357557
 N          4.8840676209       -0.1788338375        0.0252682295
 C          5.8849081237       -1.1503934772        0.0736138079
 C          5.8126167150       -2.2729772829       -0.7544262520
 C          6.8022195873       -3.2331212727       -0.7035275464
 C          7.8749895746       -3.0909755190        0.1651320356
 C          7.9481807316       -1.9778181527        0.9901304821
 C          6.9621262550       -1.0129860378        0.9520709443
 C         -1.4636477447       -1.5728099988       -0.2444202394
 C         -2.8237595939       -1.6137730642       -0.2438655946
 C         -3.5361302344       -0.4154396133       -0.0582915703
 C         -5.7835029796       -2.2791038896        0.7664541045
 C         -6.7723363362       -3.2410109987        0.7417523471
 H         -8.6478368607       -3.8467299727       -0.1010107760
 H         -8.8323111409       -1.8575331313       -1.5517609195
 H         -7.0594448256       -0.1497509375       -1.5408641833
 H         -7.2316867407        1.3957011651        0.2512570425
 H         -7.1056977152        3.8447309993        0.4765507102
 H         -4.9478859117        5.0050368968        0.4838940524
 H         -2.8327328971        3.7333195329        0.3001689206
 H         -0.9682801712        1.8133386918        0.1112403562
 H          0.9189966094       -2.4976622080        0.2889743409
 H          3.3374100322       -2.5510540620        0.3268246451
 H          0.9706901995        1.8117854404       -0.2062129688
 H          2.8400892778        3.7329489938       -0.3374846644
 H          4.9594886548        5.0065211831       -0.4404007185
 H          7.1166172905        3.8470451255       -0.3687369072
 H          7.2363296688        1.3960312785       -0.1606622206
 H          4.9901423935       -2.3667844758       -1.4476656429
 H          6.7427985474       -4.0952752840       -1.3510777689
 H          8.6477939000       -3.8432028798        0.1998005309
 H          8.7760231968       -1.8673595688        1.6747895003
 H          7.0008943483       -0.1627728191        1.6163053921
 H         -0.9294257457       -2.4908193205       -0.4243687900
 H         -3.3486123958       -2.5436581432       -0.4063594568
 H         -4.9370190439       -2.3771610966        1.4294498023
 H         -6.6885798932       -4.1086168845        1.3792396096
