  48
  -82.6092903939000       0.337819386382851      !
 N         -6.1724582268       -3.0192192033       -1.7480052501
 C         -5.6353032978       -2.1408718742       -1.2451082835
 C         -4.9632312051       -1.0617216397       -0.6219190564
 C         -5.7003482187       -0.0292388525       -0.0427150526
 C         -5.0125107097        1.0215540068        0.5629912986
 C         -5.7362371014        2.0813192876        1.1611298453
 N         -6.3147802291        2.9460257457        1.6407562343
 C         -3.6208971936        1.0439836154        0.5883022552
 C         -2.8810897696        0.0090923380        0.0080123819
 C         -1.4224261541        0.0236288219        0.0292933145
 C         -0.7148123880       -1.0814884085        0.5962015411
 C         -1.3822967621       -2.1275171490        1.2404840619
 C         -0.6923909781       -3.1849461621        1.8292908579
 C          0.6850729098       -3.1901536911        1.8231111013
 C          1.3776293791       -2.1369327379        1.2299698233
 C          0.7121726781       -1.0851496781        0.5928371716
 C          1.4219214259        0.0189412992        0.0274679898
 C          2.8809372928        0.0044703991        0.0084633634
 C          3.6179654351        1.0358242339        0.5981749688
 C          5.0096150889        1.0165233570        0.5742019025
 C          5.7300562478        2.0723165489        1.1832881994
 N          6.3093467610        2.9321271251        1.6711459277
 C          5.6999740449       -0.0271055339       -0.0409704277
 C          4.9654916274       -1.0560677897       -0.6295043150
 C          5.6392885590       -2.1277856164       -1.2635731211
 N          6.1798213941       -3.0014104257       -1.7710276859
 C          3.5740051964       -1.0442960908       -0.6036993328
 C          0.7150207271        1.1329659854       -0.5220731888
 C          1.3824556080        2.1892092236       -1.1495839964
 C          0.6931517620        3.2550111039       -1.7238833331
 C         -0.6841546399        3.2565599915       -1.7247544987
 C         -1.3767999007        2.1926486241       -1.1508277139
 C         -0.7127479701        1.1350031275       -0.5221584840
 C         -3.5719538987       -1.0461933334       -0.5960091761
 H         -6.7795181920       -0.0437956971       -0.0621432704
 H         -3.1104647624        1.8534173863        1.0900099163
 H         -2.4598401452       -2.1145622869        1.3041822830
 H         -1.2446439816       -3.9829690277        2.3007404412
 H          1.2353171423       -3.9928090500        2.2889815444
 H          2.4557557551       -2.1319071455        1.2841894400
 H          3.1051405850        1.8402200908        1.1055400084
 H          6.7791835660       -0.0386504874       -0.0607770355
 H          3.0254509595       -1.8378810729       -1.0903643999
 H          2.4600430775        2.1787123663       -1.2113458001
 H          1.2459419363        4.0615553141       -2.1799376991
 H         -1.2344203332        4.0643087286       -2.1817093961
 H         -2.4543349283        2.1850778596       -1.2135963462
 H         -3.0213248700       -1.8432620407       -1.0745314228
  48
  -82.6092346588000       0.318471439008164      !
 N         -6.0652448217       -1.7162858322       -3.1326818274
 C         -5.5580242401       -1.2317785651       -2.2267204483
 C         -4.9244425227       -0.6275814208       -1.1140621826
 C         -5.6953877155       -0.1089892423       -0.0738843838
 C         -5.0432008157        0.4810839443        1.0079198671
 C         -5.8014419791        1.0182016285        2.0762467411
 N         -6.4102986166        1.4470447434        2.9469116758
 C         -3.6534025095        0.5476103384        1.0552908188
 C         -2.8797078129        0.0243126118        0.0148045482
 C         -1.4224899066        0.0757625802        0.0533832626
 C         -0.7151876813       -0.4994471259        1.1545093218
 C         -1.3804006434       -1.1574519802        2.1933095630
 C         -0.6900315396       -1.7521368323        3.2473849714
 C          0.6871269118       -1.7431075587        3.2533581222
 C          1.3784004896       -1.1421113205        2.2036252415
 C          0.7130584201       -0.4947643512        1.1580525910
 C          1.4213073454        0.0777613484        0.0568266383
 C          2.8794378895        0.0255920076        0.0194116459
 C          3.6530131292        0.5700206684        1.0484612410
 C          5.0429829010        0.5037147329        1.0007345224
 C          5.8027314822        1.0674553469        2.0542004605
 N          6.4142276058        1.5190407178        2.9115976532
 C          5.6940414560       -0.1094297230       -0.0687101641
 C          4.9226529412       -0.6498848261       -1.0972081616
 C          5.5560094097       -1.2799119541       -2.1955981046
 N          6.0624529222       -1.7872097196       -3.0894740828
 C          3.5334017278       -0.5803437455       -1.0576648425
 C          0.7137927561        0.6865791376       -1.0251241349
 C          1.3826404991        1.3631126983       -2.0497883404
 C          0.6924871647        1.9975022463       -3.0802465727
 C         -0.6851294372        2.0025269215       -3.0787472577
 C         -1.3780925398        1.3713038198       -2.0480426236
 C         -0.7126286579        0.6885354395       -1.0255085644
 C         -3.5352655411       -0.5599585765       -1.0737372852
 H         -6.7730148371       -0.1625411760       -0.1062656888
 H         -3.1721755022        1.0377692592        1.8892854244
 H         -2.4573017998       -1.2279202657        2.1783528141
 H         -1.2420148239       -2.2302856096        4.0415378690
 H          1.2384398540       -2.2131649371        4.0528253573
 H          2.4562543630       -1.1980611574        2.1974006704
 H          3.1719546793        1.0758940257        1.8731670497
 H          6.7716658725       -0.1635569478       -0.1008257256
 H          2.9543927233       -1.0279313458       -1.8527557312
 H          2.4609527756        1.4152058238       -2.0398518522
 H          1.2445546578        2.4952313694       -3.8622999164
 H         -1.2351707533        2.5045529797       -3.8594676221
 H         -2.4559574811        1.4311753909       -2.0367986749
 H         -2.9575396202       -0.9911373934       -1.8785748120
  48
  -82.6087362107000       0.187931510269373      !
 N         -6.4169952288       -0.1499626240       -3.2795535756
 C         -5.8047801702       -0.0994105558       -2.3124736406
 C         -5.0438420744       -0.0269919179       -1.1206186995
 C         -5.6929326354        0.1045608947        0.1062798675
 C         -4.9190811717        0.1675926608        1.2650753209
 C         -5.5486515337        0.3013079134        2.5261211625
 N         -6.0525173470        0.4038921871        3.5501907335
 C         -3.5309882557        0.1027966666        1.1995877435
 C         -2.8778688519       -0.0196160966       -0.0315434019
 C         -1.4220794383       -0.0664635895       -0.0879856876
 C         -0.7190000134       -1.0261681277        0.7043510365
 C         -1.3892284940       -2.0254353112        1.4156817727
 C         -0.7105038159       -2.8990208495        2.2626156204
 C          0.6529100660       -2.7754539746        2.4208851078
 C          1.3532100472       -1.8281764703        1.6772403061
 C          0.7067439243       -0.9880632962        0.7654078453
 C          1.4221649851       -0.0803275432       -0.0736446092
 C          2.8778833544       -0.0277048380       -0.0206991147
 C          3.5301583047        1.1867694905        0.2176388979
 C          4.9181681628        1.2466389155        0.2892613434
 C          5.5467014720        2.4897620001        0.5423577543
 N          6.0507261759        3.4996422752        0.7404364452
 C          5.6927797803        0.0993501957        0.1180012929
 C          5.0445393862       -1.1100421476       -0.1290692481
 C          5.8062600309       -2.2893997410       -0.3126865653
 N          6.4187975809       -3.2473611769       -0.4537020999
 C          3.6557076477       -1.1766176638       -0.1969551415
 C          0.7191309845        0.7985994710       -0.9547654041
 C          1.3894837057        1.6014266318       -1.8820328488
 C          0.7107673810        2.5269303202       -2.6719156952
 C         -0.6528266731        2.6720592684       -2.5347948408
 C         -1.3532555069        1.8416063589       -1.6627130311
 C         -0.7066711774        0.8549511696       -0.9119884971
 C         -3.6549244483       -0.0874180152       -1.1924353581
 H         -6.7699184384        0.1546578267        0.1585732266
 H         -2.9510238814        0.1799829318        2.1079598634
 H         -2.4576488962       -2.1344711369        1.3038406222
 H         -1.2617264438       -3.6540415216        2.8012014732
 H          1.1877643101       -3.4142775339        3.1063915411
 H          2.4196065363       -1.7415224451        1.8209767814
 H          2.9495798767        2.0834374436        0.3800253617
 H          6.7696630904        0.1471507042        0.1742708494
 H          3.1787102495       -2.1195337048       -0.4220285058
 H          2.4581133176        1.5013510434       -2.0001092559
 H          1.2620053573        3.1342915518       -3.3727970315
 H         -1.1879179269        3.4137076136       -3.1072652007
 H         -2.4198344321        1.9757309410       -1.5637118772
 H         -3.1772298627       -0.2220733273       -2.1521023730
  48
  -82.6082570682000       0.113188148781181      !
 N         -6.2313360231       -0.2983365515       -3.4332533861
 C         -5.6750344999       -0.2167430517       -2.4354588896
 C         -4.9831396129       -0.1035373054       -1.2054548190
 C         -5.7006519182       -0.0013618385       -0.0139396113
 C         -4.9920569159        0.1045910657        1.1825164150
 C         -5.6922947052        0.2157654111        2.4080580994
 N         -6.2634517406        0.2906872742        3.3988389820
 C         -3.6004724999        0.1052899683        1.1905397509
 C         -2.8798393036        0.0052270791       -0.0039717618
 C         -1.4219902650        0.0066825568        0.0012147692
 C         -0.7150459793       -0.9335847093        0.8117220291
 C         -1.3756364831       -1.9257635726        1.5423871295
 C         -0.6883757062       -2.7776188032        2.4043369649
 C          0.6750356690       -2.6443982829        2.5542088890
 C          1.3667853973       -1.7091199092        1.7874788035
 C          0.7107286803       -0.8874286327        0.8661938250
 C          1.4224970758        0.0051604795        0.0069597343
 C          2.8801474141       -0.0005649425        0.0061661587
 C          3.6024576743        1.1786336382        0.2163526400
 C          4.9940708413        1.1686682963        0.2158131118
 C          5.6965730064        2.3775796065        0.4383582777
 N          6.2647132705        3.3577914978        0.6085414059
 C          5.7012729538       -0.0139694200        0.0015475879
 C          4.9822174221       -1.1901002683       -0.2097364080
 C          5.6728185012       -2.4059578235       -0.4318459260
 N          6.2265622966       -3.3937957062       -0.6054454141
 C          3.5906822642       -1.1867424378       -0.2055878846
 C          0.7154468336        0.9010023691       -0.8526433321
 C          1.3758580931        1.7246150452       -1.7691524176
 C          0.6879476377        2.6623425960       -2.5363471490
 C         -0.6761225341        2.7955494754       -2.3926853156
 C         -1.3676322757        1.9415957004       -1.5361794608
 C         -0.7105962761        0.9480468806       -0.8042847915
 C         -3.5914960193       -0.0976559913       -1.2036491288
 H         -6.7800652281       -0.0039411041       -0.0177804295
 H         -3.0736845133        0.2169823425        2.1272429593
 H         -2.4431469916       -2.0463494965        1.4351878643
 H         -1.2332053448       -3.5252706026        2.9594879948
 H          1.2164192971       -3.2678847969        3.2486029951
 H          2.4342225981       -1.6165994930        1.9203403028
 H          3.0770311222        2.1017141986        0.4144336695
 H          6.7806532795       -0.0192644712       -0.0003326975
 H          3.0556302121       -2.1050588091       -0.4000509449
 H          2.4437994986        1.6319560539       -1.8978155289
 H          1.2328034167        3.2872510455       -3.2267471297
 H         -1.2181479813        3.5445856838       -2.9487514113
 H         -2.4357025432        2.0618495432       -1.4340428129
 H         -3.0573052181       -0.2039080381       -2.1368091842
  48
  -82.6073333788000       4.258951555843109E-002 !
 N         -6.7641379478        0.1084995757       -2.8851103327
 C         -6.0340163642        0.1066007031       -2.0022006355
 C         -5.1277262239        0.1158554627       -0.9142083366
 C         -5.6050629531        0.3394971754        0.3757196590
 C         -4.6945689645        0.3315587465        1.4332147370
 C         -5.1427837981        0.5556116000        2.7571313425
 N         -5.4995066779        0.7107900277        3.8350926705
 C         -3.3403684651        0.1182074072        1.2021172400
 C         -2.8555084917       -0.0787461113       -0.0957538203
 C         -1.4193306889       -0.2328045095       -0.2917100298
 C         -0.7244325624       -1.2266144486        0.4679549287
 C         -1.4158659463       -2.2288032452        1.1527104407
 C         -0.7526049812       -3.1495529983        1.9611487317
 C          0.6145729500       -3.0630869780        2.1128251062
 C          1.3323922904       -2.0992041931        1.4086454627
 C          0.7009985603       -1.2112445710        0.5321657826
 C          1.4189002794       -0.2635858968       -0.2578126250
 C          2.8551454154       -0.0821005057       -0.0842831099
 C          3.3390614663        1.1903867381        0.2387710438
 C          4.6930402784        1.3995018685        0.4756182176
 C          5.1423950890        2.6949792693        0.8274365068
 N          5.4984655608        3.7470723920        1.1093523409
 C          5.6038398236        0.3466551559        0.3798254692
 C          5.1272721236       -0.9152005253        0.0301413112
 C          6.0340627304       -1.9964390918       -0.0875695166
 N          6.7644685034       -2.8749077293       -0.1747793804
 C          3.7703615154       -1.1323675696       -0.1998987976
 C          0.7247348653        0.5814607789       -1.1801900922
 C          1.4175508783        1.3560953364       -2.1136932231
 C          0.7548722957        2.2421113989       -2.9604156989
 C         -0.6129398510        2.3819436477       -2.8649192664
 C         -1.3316845516        1.5927486259       -1.9699261355
 C         -0.7009694095        0.6408292242       -1.1629659066
 C         -3.7708281997       -0.0921013882       -1.1524354530
 H         -6.6556057825        0.5120391556        0.5538175075
 H         -2.6490794137        0.1379564639        2.0323695401
 H         -2.4886163343       -2.3001328192        1.0494705201
 H         -1.3172255821       -3.9114063296        2.4756259523
 H          1.1390152107       -3.7424215146        2.7668114322
 H          2.3996120785       -2.0381543036        1.5568905274
 H          2.6473726597        2.0145676795        0.3384972887
 H          6.6544005036        0.5075975593        0.5684916218
 H          3.4333551210       -2.1122988965       -0.5052782593
 H          2.4908961398        1.2627813044       -2.1896925975
 H          1.3202640065        2.8242376030       -3.6713075483
 H         -1.1372618815        3.0930246609       -3.4843507854
 H         -2.3991515349        1.7339654535       -1.8982406359
 H         -3.4341675885       -0.3022344736       -2.1571860423
