  48
        -82.84325710
 N         -6.2356160879        2.0773542562       -2.7399769054
 C         -5.6780656243        1.4680675266       -1.9464846857
 C         -4.9846401460        0.7263431269       -0.9598489321
 C         -5.7006628722        0.0003283455       -0.0084361839
 C         -4.9905760954       -0.7242002140        0.9484729308
 C         -5.6892861443       -1.4663914116        1.9311232300
 N         -6.2591974206       -2.0774941545        2.7154923886
 C         -3.5989832109       -0.7271138764        0.9542003756
 C         -2.8798450302        0.0024832635        0.0019867284
 C         -1.4219918542        0.0021295121        0.0060891508
 C         -0.7133157845       -1.2378512059       -0.0258611289
 C         -1.3722406177       -2.4645502776       -0.1511513969
 C         -0.6832436414       -3.6736517326       -0.0855841320
 C          0.6802676697       -3.6737827307        0.1142577208
 C          1.3703449890       -2.4649436648        0.1745880862
 C          0.7124957757       -1.2382648483        0.0447941141
 C          1.4225009353        0.0011487083        0.0079226650
 C          2.8801526928       -0.0005047790        0.0027710831
 C          3.6018969856        0.7325507220        0.9504707032
 C          4.9935150009        0.7274935408        0.9426905844
 C          5.6954462363        1.4742207207        1.9195187465
 N          6.2631101309        2.0865769158        2.7039539585
 C          5.7012785954       -0.0033541678       -0.0110435671
 C          4.9827854021       -0.7333957086       -0.9574961210
 C          5.6739613833       -1.4835974160       -1.9393541781
 N          6.2281812585       -2.0977251266       -2.7319954215
 C          3.5912548363       -0.7356569060       -0.9514834375
 C          0.7136862338        1.2412204959       -0.0263388066
 C          1.3723084215        2.4679673918       -0.1519518756
 C          0.6827247376        3.6769890156       -0.0896416343
 C         -0.6812505920        3.6771788896        0.1069327605
 C         -1.3710282386        2.4682393448        0.1677359445
 C         -0.7123254467        1.2415555579        0.0417879865
 C         -3.5929999274        0.7314456063       -0.9552436448
 H         -6.7800781759       -0.0005213519       -0.0124831971
 H         -3.0710477755       -1.2730998594        1.7226905528
 H         -2.4398044709       -2.4833207509       -0.3110464308
 H         -1.2268120905       -4.6011567962       -0.1765946382
 H          1.2230052567       -4.6013729476        0.2092689923
 H          2.4378891756       -2.4842022181        0.3346283964
 H          3.0760725729        1.2823099521        1.7177127463
 H          6.7806590303       -0.0044915410       -0.0165247917
 H          3.0566031705       -1.2858129629       -1.7123233993
 H          2.4401460659        2.4873101000       -0.3100257675
 H          1.2262295699        4.6044784428       -0.1812734152
 H         -1.2245382053        4.6047931087        0.1987301425
 H         -2.4390491830        2.4871575678        0.3247083661
 H         -3.0599569905        1.2805741589       -1.7179756152
