  88
       -130.47598553
 C          1.5739968207        0.6410944376        2.2888056267
 C          1.5900979761        0.6007446218        0.7587510456
 C          1.4963114315        2.0176773749        0.1831510146
 C          0.4810211726       -0.2721776149        0.2173516010
 C         -0.8752225407       -0.1087056549        0.3600877755
 C         -1.7361318606       -1.0195702740       -0.2604940753
 C         -3.1791942253       -0.8765436244       -0.1812442970
 N         -4.0184457767       -1.8786577626       -0.1089382501
 C         -5.2692482992       -1.3490997163       -0.0115589463
 C         -6.4376473061       -2.2137834718        0.0529253010
 C         -7.6913828368       -1.7987458983       -0.3922648957
 C         -8.7759559965       -2.6514226562       -0.3102487057
 C         -8.6264439833       -3.9285342913        0.2053461290
 C         -7.3784639638       -4.3558259986        0.6291349929
 C         -6.2913862192       -3.5073811745        0.5521695470
 C         -5.1847533508        0.0339647815       -0.0190455864
 C         -6.2106858399        1.0636482521        0.0746580639
 C         -7.1735213905        0.9951776817        1.0813415438
 C         -8.1495760734        1.9673842237        1.1807287849
 C         -8.1777719309        3.0221109657        0.2820572364
 C         -7.2262451191        3.0964526958       -0.7210874304
 C         -6.2476217704        2.1257257686       -0.8269648333
 N         -3.8434237018        0.3244515793       -0.1395274925
 C         -3.2835064124        1.6095510938       -0.2332960725
 C         -2.4366120936        1.9174858754       -1.2935659329
 C         -1.8717563859        3.1760806408       -1.3761944824
 C         -2.1559798792        4.1333309232       -0.4155180673
 C         -3.0086818103        3.8290243493        0.6324856838
 C         -3.5722813038        2.5698641468        0.7300688147
 C         -1.2105629379       -2.1059608425       -0.9629182804
 C          0.1540819609       -2.2783349284       -1.0953667795
 C          1.0046491614       -1.3474582385       -0.5175432666
 C          2.4516094922       -1.2486856348       -0.5060272280
 C          3.4303306914       -2.0444757655       -1.0810888911
 C          4.7582967548       -1.6980347470       -0.9208595590
 C          5.1251014272       -0.5716698646       -0.1799007114
 N          6.4716399350       -0.2294749632       -0.0328190820
 C          6.8503582793        1.1168157310        0.0057811320
 C          7.8815449499        1.5365725146        0.8463209048
 C          8.2533991635        2.8663136618        0.8823519050
 C          7.6021146312        3.7994195087        0.0921702290
 C          6.5757977536        3.3886543465       -0.7428740258
 C          6.2027349559        2.0597835623       -0.7928458220
 C          7.4479514149       -1.2273038947        0.0682214560
 C          8.6913400633       -1.0623042728       -0.5416176237
 C          9.6552400970       -2.0458376826       -0.4345427604
 C          9.3957182257       -3.2088602630        0.2718058461
 C          8.1607907783       -3.3795653496        0.8761647559
 C          7.1932412183       -2.3984334751        0.7815455100
 C          4.1354021585        0.2221783331        0.4109845882
 C          2.8156190439       -0.1144070611        0.2370537689
 H          0.6558700772        1.1032820565        2.6438333013
 H          1.6339737035       -0.3675560861        2.6918194919
 H          2.4194351839        1.2153996751        2.6602700901
 H          0.5702191054        2.4934304875        0.4984179992
 H          2.3351797142        2.6200063280        0.5241669767
 H          1.5127032309        1.9815934693       -0.9041590009
 H         -1.2697154931        0.7023088502        0.9533450913
 H         -7.8137892041       -0.8127145104       -0.8143263225
 H         -9.7441990285       -2.3191939826       -0.6567259634
 H         -9.4782735875       -4.5897220360        0.2695251322
 H         -7.2548142897       -5.3545197910        1.0226175058
 H         -5.3123506187       -3.8264173707        0.8741938986
 H         -7.1470052032        0.1722099687        1.7804107377
 H         -8.8900814275        1.9047714478        1.9645193857
 H         -8.9411302792        3.7815574464        0.3619605796
 H         -7.2475366376        3.9128140350       -1.4281490042
 H         -5.5172050174        2.1821044063       -1.6213539256
 H         -2.2225728290        1.1661563126       -2.0389374222
 H         -1.2102117807        3.4113354218       -2.1962564611
 H         -1.7130825659        5.1153331056       -0.4841347136
 H         -3.2330243091        4.5725465578        1.3824728070
 H         -4.2298511809        2.3233932977        1.5502729491
 H         -1.9011586930       -2.8065971409       -1.4059209581
 H          0.5482285637       -3.1193203560       -1.6460040867
 H          3.1644208892       -2.9166020421       -1.6592586664
 H          5.5308598924       -2.2983800806       -1.3782802386
 H          8.3838902046        0.8127870757        1.4712234498
 H          9.0512258690        3.1775527731        1.5404364894
 H          7.8922250061        4.8383898377        0.1267396832
 H          6.0662528984        4.1075585496       -1.3676880736
 H          5.4087172868        1.7407846921       -1.4519746713
 H          8.8923384852       -0.1603300015       -1.1010181814
 H         10.6127324967       -1.9063174851       -0.9144267431
 H         10.1501110620       -3.9766352686        0.3505785309
 H          7.9517480344       -4.2806209963        1.4337466281
 H          6.2343129881       -2.5288305213        1.2612757580
 H          4.4207169101        1.0857805152        0.9931843681
