88
 energy: -130.528207934094 gnorm: 0.000062150650 xtb: 6.7.1 (edcfbbe)
C            1.57060903917607        0.68145452037290        2.25253119239493
C            1.60726902591740        0.63569297590110        0.72190403577023
C            1.54101500671028        2.05318049888209        0.14245930903000
C            0.49415134760193       -0.22688928032178        0.16965236113991
C           -0.86318489244064       -0.05452749100228        0.30092685571342
C           -1.72723939735887       -0.96824123196996       -0.31157116171729
C           -3.17109823140105       -0.83724706678038       -0.21882198735566
N           -3.99424006187633       -1.85582367140259       -0.15542479351711
C           -5.25334100105233       -1.34687928757334       -0.03717276367104
C           -6.40920647851161       -2.22984030973090        0.02128400872022
C           -7.67021662175715       -1.82553882266522       -0.41454788424401
C           -8.74428867637807       -2.69297155216266       -0.34361069322778
C           -8.57760088158295       -3.97582847797273        0.15280262336060
C           -7.32298109922630       -4.39300143753750        0.56830514046331
C           -6.24693979691305       -3.52912889485242        0.50207677606136
C           -5.18984777221203        0.03659313191650       -0.02273909217406
C           -6.22946385341922        1.05076012854819        0.10582270638051
C           -7.15830322384158        0.96724178862263        1.14292882516762
C           -8.14044112304314        1.92964404274752        1.27974059032196
C           -8.20855487196312        2.98883434831918        0.38813646274819
C           -7.29290859855775        3.07646637820451       -0.64728129832752
C           -6.30897548517217        2.11539613024507       -0.79025197857980
N           -3.85350801845904        0.35058601229530       -0.14961617708682
C           -3.32390913568127        1.65315291871863       -0.23647411865853
C           -2.53369554561377        2.00589369669088       -1.32557062596065
C           -2.01934241842898        3.28643537430585       -1.41194480981459
C           -2.29545845811689        4.21793297413546       -0.42381136571455
C           -3.08606728539393        3.86580087189102        0.65760124422763
C           -3.60107008381811        2.58561181663844        0.75690270268005
C           -1.20243806757359       -2.06049929121327       -1.00686209048104
C            0.16195591709754       -2.23973982409631       -1.13333183780506
C            1.01528514428766       -1.31208053149732       -0.55343245689253
C            2.46323590387045       -1.22850778312866       -0.52674153185479
C            3.43951912730281       -2.03676035017974       -1.08973765498064
C            4.76949754083417       -1.70475204220345       -0.91556020482400
C            5.14094486822475       -0.58063031816551       -0.17268546686942
N            6.49070141444445       -0.25328416637289       -0.01134767887522
C            6.88637834825256        1.09053138202278        0.01072262139804
C            7.90568793714729        1.51372454931820        0.86397885141431
C            8.29596726508298        2.83915370507214        0.87995657454393
C            7.67361312442238        3.76474774839627        0.05777515891723
C            6.65775667541531        3.35076939059304       -0.78900160958416
C            6.26742900096086        2.02582205463660       -0.81933741142980
C            7.45232176951374       -1.26362251547065        0.11524121280791
C            8.70649206594828       -1.12458510373390       -0.47969515005457
C            9.65443119535022       -2.12113819089013       -0.34855977591156
C            9.36752243015443       -3.27357808271070        0.36536648682342
C            8.12208016056648       -3.41854103885372        0.95537499370130
C            7.17119642815005       -2.42304161113364        0.83839577452866
C            4.15344447267065        0.22564446931715        0.40504225586952
C            2.83103092162951       -0.09596919293489        0.21766136672909
H            0.65273638535149        1.15551587358983        2.59235768938078
H            1.61355028502483       -0.32630365729536        2.66107891084952
H            2.41747509655124        1.24779482282376        2.63262993724199
H            0.61124848065624        2.53569105689342        0.43431372728261
H            2.37559147723791        2.64772627967704        0.50624955979227
H            1.58683769268452        2.01593048037704       -0.94402913149231
H           -1.25775508962882        0.76545290939285        0.88202115151356
H           -7.80619469962062       -0.83373848990324       -0.82010197036439
H           -9.71726180550235       -2.36648806815377       -0.68271517783873
H           -9.42031877794219       -4.64974418500586        0.20794371990306
H           -7.18466517660994       -5.39567844753029        0.94727895034170
H           -5.26327390136713       -3.84173568392641        0.81870486070420
H           -7.09984613241985        0.14161430536960        1.83782062637777
H           -8.85337995143157        1.85529985245483        2.08797556902070
H           -8.97516268531775        3.74144886264604        0.49874208125735
H           -7.34506371797029        3.89555461525961       -1.34979016098817
H           -5.60559679121198        2.18148643354344       -1.60818564738616
H           -2.32691732843073        1.27350505464039       -2.09230558383522
H           -1.40463402066102        3.55768019480898       -2.25688179325532
H           -1.89348420461530        5.21710467994169       -0.49669560666194
H           -3.30244355886032        4.58754502804119        1.43088556346598
H           -4.21299713147013        2.30194128368751        1.60041646744703
H           -1.89377334303920       -2.76277760169577       -1.44773246593106
H            0.55260649979964       -3.08646602216756       -1.67792807987502
H            3.17052615717067       -2.90728057941661       -1.66931481773829
H            5.54007658357224       -2.31504667806440       -1.36378942649850
H            8.38687348264499        0.79670949351860        1.51328329316420
H            9.08658447207723        3.15239637948588        1.54644026309635
H            7.97862630085466        4.80034646264385        0.07604306211878
H            6.17046243782572        4.06367387923574       -1.43840811306332
H            5.48179790075382        1.70461557823950       -1.48771754730183
H            8.92972276079357       -0.23207393114377       -1.04620996039116
H           10.62087577970600       -2.00069350064769       -0.81642264548030
H           10.10924486761354       -4.05223899865277        0.46216520077079
H            7.89110287188447       -4.31079297690807        1.51923734584671
H            6.20435534807462       -2.53498835990706        1.30739132733367
H            4.44238612025845        1.08813877727929        0.98724156349118
