88
 energy: -130.446595850717 gnorm: 0.000040989657 xtb: 6.7.1 (edcfbbe)
C            1.61828467942817        1.19228428510171        1.92196959706399
C            1.66476495779420        0.87293230609282        0.42355900770577
C            1.63381049999055        2.16848594573169       -0.39525369120536
C            0.53458088895895       -0.05200901330496        0.02344420345766
C           -0.79964551712854        0.17282311596619        0.09621541332529
C           -1.71414854686498       -0.83983888926298       -0.33151083372578
C           -3.11222282594194       -0.71711616851927       -0.29217172234529
N           -3.92968825732187       -1.78002542227237       -0.36512402335800
C           -5.17687546034548       -1.34574359792366       -0.16539249657941
C           -6.30435635371314       -2.26523201292933       -0.21940584614813
C           -7.54623222221234       -1.88014501427874       -0.72423004402354
C           -8.58974803612954       -2.78528859381438       -0.77217984161966
C           -8.41076002919004       -4.08510480789710       -0.32588110208781
C           -7.17356278635493       -4.48220536792163        0.15684368308050
C           -6.12696783067908       -3.58188262511565        0.20670421143334
C           -5.18460269000032        0.05059341593151        0.02569326810451
C           -6.29306394179782        0.93869736556700        0.28288336515099
C           -7.28114793164403        0.56162177061762        1.20340329834906
C           -8.35170415935877        1.39065101665271        1.46414291005346
C           -8.46708998022538        2.61243851007156        0.81543387650315
C           -7.50111701521603        2.99291877891625       -0.10424266764053
C           -6.42444204615969        2.17120631065822       -0.36966583680080
N           -3.86702676308057        0.44457230494852       -0.08416819925126
C           -3.41682490558634        1.77092258658790       -0.06381637339903
C           -2.66134071934330        2.26693805389935       -1.12798095329613
C           -2.23514745412239        3.58043255841912       -1.11547797013918
C           -2.56028645486717        4.41238891398054       -0.05400237204356
C           -3.31335788629550        3.92129725627235        1.00164154354359
C           -3.74354035880489        2.60813866839580        1.00217177905493
C           -1.17269526824878       -2.09144938526776       -0.77445080580921
C            0.16504901080596       -2.31207674522160       -0.85742706376998
C            1.06372624965057       -1.28690811699918       -0.47294551640313
C            2.46805816012319       -1.23083125067008       -0.44102298699526
C            3.45335582516419       -2.16853912850174       -0.81479949752337
C            4.77629313340327       -1.84859574749535       -0.66613086002128
C            5.17570506090522       -0.59769759334331       -0.15238451892258
N            6.52354941396926       -0.29206874727444       -0.01610862233142
C            6.96972629485976        1.01771633833097       -0.22288461375214
C            7.98266210848110        1.55486500645385        0.57460471968269
C            8.41794564181733        2.84867215638082        0.36531456924117
C            7.85150367962415        3.62780887692056       -0.63220494507338
C            6.84358605338242        3.09990828945773       -1.42497019607891
C            6.40395429376886        1.80581656348140       -1.22795922666181
C            7.44162816788901       -1.28872816720440        0.33092066331911
C            8.71895231529167       -1.30160999444098       -0.23386612771829
C            9.62115946410341       -2.28772347396278        0.11336121351807
C            9.26751603096311       -3.27549664967393        1.02006820720343
C            7.99965567097801       -3.26842309067536        1.58171545761015
C            7.09104368070692       -2.28446248844354        1.24549403543061
C            4.19343133551958        0.34865044181222        0.21903187013888
C            2.87611934540388        0.03539203754223        0.07867414675448
H            0.70858466600093        1.73882979919915        2.16045440713837
H            1.63286736551880        0.27237705631838        2.50333998400824
H            2.47503254783765        1.79892254872077        2.20618646468497
H            0.72138096388556        2.72145242599042       -0.18408197973689
H            2.48876855868472        2.79342974127550       -0.14740851761454
H            1.66326781406931        1.94100556228180       -1.45909803691798
H           -1.17491021998834        1.09263761858033        0.51485217022296
H           -7.68774473665250       -0.87476191431471       -1.09280307476170
H           -9.54733543278424       -2.47509942154872       -1.16527682112704
H           -9.23032747704423       -4.78796946484927       -0.36167064108075
H           -7.02587340351078       -5.49753550900066        0.49584831145539
H           -5.15706459630175       -3.87720962420531        0.57782890426181
H           -7.18614895568748       -0.38385348051572        1.71778026785496
H           -9.09981233173010        1.08699072944186        2.18214725083646
H           -9.30517254894356        3.26079080156569        1.02304074889767
H           -7.59053877557172        3.93676595460638       -0.62271613682305
H           -5.69308832068161        2.46764477175135       -1.10727689547717
H           -2.41473652959290        1.61240889991337       -1.95133199252912
H           -1.65081200096787        3.95838927568523       -1.94140976421423
H           -2.22744635165306        5.43925827016283       -0.04978799544214
H           -3.56550417501102        4.56373630733031        1.83227678168428
H           -4.32441350696566        2.21923781502658        1.82554128166763
H           -1.88344265224165       -2.85158423597402       -1.05987710956264
H            0.54820798003329       -3.25760417546199       -1.21283960274460
H            3.16283762200636       -3.12273888863079       -1.22731408534348
H            5.53987699879925       -2.55123233839162       -0.96780164650799
H            8.41485875199056        0.95368228809713        1.36105565451742
H            9.19946514367811        3.25479637831606        0.99050017005657
H            8.19342170199976        4.63932590093952       -0.79089047780556
H            6.40242618221073        3.69801019819209       -2.20875239890327
H            5.62900697560998        1.38942774355206       -1.85457230760576
H            8.99072870849183       -0.54044256228752       -0.95039401543346
H           10.60471478786196       -2.29021521509274       -0.33285607285469
H            9.97497002878882       -4.04570434685607        1.28734299712009
H            7.71923230366271       -4.03067438228832        2.29366167404763
H            6.10833166909387       -2.26995521522005        1.69354592253386
H            4.50489324346710        1.29769330879666        0.63005207991741
