88
 energy: -130.528099607430 gnorm: 0.000071690423 xtb: 6.7.1 (edcfbbe)
C            1.44189151322628        0.48293170914626        2.16554558423824
C            1.48979454277094        0.53319678380270        0.63502906233286
C            1.41575580980628        1.98318392083920        0.14463580655645
C            0.38857548628483       -0.30694098178876        0.02650052387426
C           -0.97152887913394       -0.16577420217246        0.16782031284033
C           -1.81914812876428       -1.07292868448884       -0.47609100628169
C           -3.26414916105918       -0.98881177383687       -0.34137042640793
N           -4.04900873841182       -2.03181011685891       -0.22668867455456
C           -5.31892105549792       -1.56079422220679       -0.06660271632372
C           -6.43935723822419       -2.48122442393776        0.06341387209250
C           -7.73116451745623       -2.13457080391123       -0.32934543789000
C           -8.76918622628390       -3.03666093874885       -0.18798122586964
C           -8.53556616644026       -4.29732917068768        0.33736297116217
C           -7.25059387498543       -4.65737410209815        0.71141577913882
C           -6.21028664890670       -3.75870212216399        0.57477229938677
C           -5.30043282862453       -0.17621737683751       -0.08110146740421
C           -6.36929645906136        0.80545883475904        0.06019788871155
C           -7.25825316795646        0.71826139009916        1.13124803410754
C           -8.27042248506427        1.64786895311939        1.27603942843101
C           -8.40825424963320        2.67774680618344        0.35857923299229
C           -7.53160632261976        2.76950141120733       -0.70974662892750
C           -6.51799079193779        1.84108917294463       -0.86079892427860
N           -3.98052298791503        0.17775916842772       -0.26562045939495
C           -3.48901961021050        1.49128287701534       -0.39307931342020
C           -2.72139374694463        1.83576710559496       -1.50073309621108
C           -2.24774028129515        3.12831876906611       -1.63057042558746
C           -2.54052819663803        4.07958068101534       -0.66653783178602
C           -3.30464512608158        3.73429567245270        0.43597319087791
C           -3.77928901621243        2.44264802652736        0.57848276630710
C           -1.27841297322316       -2.11694738355320       -1.22923221363057
C            0.08847892074777       -2.25625388420234       -1.37868873716170
C            0.92589499470848       -1.34392750978790       -0.75361827540216
C            2.37250963201345       -1.24490764590859       -0.71601713624134
C            3.36010180301358       -2.01033592771907       -1.31769283734463
C            4.68577552106279       -1.68464418156597       -1.10447782210095
C            5.04201329396208       -0.61124673465180       -0.28289404168942
N            6.38811833211416       -0.30135022655771       -0.07174699535568
C            6.78733008284719        1.03295286988695        0.07995094143466
C            7.78187425337074        1.37192586551586        0.99749949543269
C            8.17484406156541        2.68849113592491        1.14444528679694
C            7.58012999378622        3.68721856122430        0.39016815753637
C            6.59000021765948        3.35634175493237       -0.52123558754954
C            6.19719780452519        2.04156320733569       -0.68222983736805
C            7.34637358520795       -1.32142205871461       -0.00420480969910
C            8.60835695505031       -1.14153277490652       -0.57067909918882
C            9.55420417450674       -2.14612936777680       -0.49822040093527
C            9.25792517304371       -3.34508487636982        0.13011358296148
C            8.00470304776282       -3.53019436248993        0.69180934703394
C            7.05515144002190       -2.52835097413142        0.63165457333330
C            4.04248214079261        0.15658211652390        0.32608003581502
C            2.72430652081108       -0.15709869134993        0.09914512634491
H            2.28140722047804        1.03084909898137        2.58658515882900
H            0.51778549599987        0.92690367532920        2.52816538771152
H            1.49060139649433       -0.54836196890425        2.50971185004741
H            0.48348286718169        2.44140787184464        0.46589971268712
H            2.24668589840124        2.55860598746149        0.54581319981565
H            1.46209043332684        2.01445719957465       -0.94198551595009
H           -1.38275201705389        0.61968409461964        0.78468449611601
H           -7.91973778818529       -1.16035067035898       -0.75594104467274
H           -9.76678096895018       -2.75498534081810       -0.49422307432528
H           -9.35025853139371       -4.99833934973460        0.44771686702447
H           -7.06064946133848       -5.64258117021225        1.11319325992523
H           -5.20381317636917       -4.02672201754042        0.85916116370855
H           -7.14531279664214       -0.08408978188369        1.84629726698891
H           -8.95268327613777        1.57053547281096        2.11004904940864
H           -9.19872635598637        3.40440334314486        0.47479713486065
H           -7.63795293682166        3.56621138135413       -1.43159745333136
H           -5.84492856207503        1.90959443769680       -1.70373802387283
H           -2.50268039098455        1.08894107958944       -2.24997194810436
H           -1.65227833415981        3.39307583091357       -2.49131222050598
H           -2.17156418688471        5.08830568382866       -0.77399552577339
H           -3.53244924119076        4.47091336560138        1.19176024774820
H           -4.37079632710902        2.16541705061478        1.43854902495647
H           -1.95745276188567       -2.81487998524988       -1.69566992687701
H            0.49324296850157       -3.06439333314489       -1.96955641650566
H            3.10302003516025       -2.84313197049883       -1.95515917723929
H            5.46518988780516       -2.26255146570983       -1.57944993397678
H            8.24062038685948        0.59643292186834        1.59379491700510
H            8.94506174102160        2.93675423226723        1.86036575705638
H            7.88640702273040        4.71548446485217        0.51140341479716
H            6.12505109501729        4.12739853051362       -1.11853172350993
H            5.43206106557791        1.78495602445660       -1.40048823441362
H            8.83892899383889       -0.21069491628627       -1.06847293243835
H           10.52679880338997       -1.99436261452925       -0.94360391416624
H            9.99817329157708       -4.12940419922565        0.18178742019431
H            7.76646748029373       -4.45959185875270        1.18867103100178
H            6.08182477047805       -2.67218557251117        1.07791325891263
H            4.31884883699781        0.98090019393397        0.96669957510444
