  69
  -115.658771339700       0.434563798406206      !
 C          7.5343870589        3.0094071873        2.1708146947
 C          6.1558490876        3.0568473566        2.2209363009
 C          5.3959586268        2.1816476869        1.4604118853
 C          6.0035280069        1.2494774228        0.6286656053
 C          7.4032436440        1.1842740199        0.6141064379
 C          8.1564715488        2.0629199005        1.3709213616
 O          8.0912878955        0.2508682865       -0.1197178118
 C          7.3579673354       -0.6080310346       -0.8985233501
 C          8.0631074637       -1.5136817739       -1.6699448514
 C          7.3917729507       -2.3917652999       -2.5072789057
 C          6.0144987916       -2.3396674737       -2.5849522105
 C          5.3028072326       -1.4336575979       -1.8142504655
 C          5.9582371996       -0.5757946984       -0.9396679143
 N          5.2686892688        0.3432168423       -0.1423765346
 C          3.8628039728        0.3827704443       -0.1602327054
 C          3.2076788057        1.5062362930       -0.6349830594
 C          1.8114057513        1.6156874333       -0.6835453076
 C          1.0582237140        0.5570921322       -0.2360963259
 C          1.7231001139       -0.5894018992        0.2597829917
 C          0.8193221460       -1.5849971190        0.7009651881
 C          1.3173660467       -2.7501806421        1.2274912245
 C          2.7132741439       -2.8973040215        1.3130855153
 C          3.5925541421       -1.9330127166        0.8802411344
 C          3.1117262633       -0.7279200360        0.3212471795
 C         -0.5105809296       -1.0453423015        0.4637305247
 N         -1.6718953574       -1.5807141476        0.7065917431
 C         -2.7450027481       -0.8193975476        0.3715075713
 C         -4.0352058823       -1.3176417640        0.6076533664
 C         -5.1527216001       -0.5837147063        0.2834721299
 C         -6.4838560756       -1.1208713068        0.6104447203
 C         -6.8339809214       -2.4242766103        0.2637890453
 C         -8.0944861661       -2.8870429492        0.6017874146
 N         -8.9902808001       -2.1604699227        1.2476431605
 C         -8.6544225997       -0.9288888595        1.5916567864
 C         -7.4254967693       -0.3609181920        1.3019808953
 C         -5.0071425822        0.6932841935       -0.3198382031
 C         -6.1821807430        1.4666438142       -0.7541106880
 C         -7.1902162795        0.8888706220       -1.5239797976
 C         -8.2607708483        1.6747127268       -1.9150413101
 N         -8.3842500112        2.9523391328       -1.5985180369
 C         -7.4240288253        3.5052662917       -0.8775193219
 C         -6.3068805763        2.8172661188       -0.4349902022
 C         -3.7495289874        1.2032266982       -0.5448972496
 C         -2.5985597177        0.4748375006       -0.2070766599
 N         -1.3792848395        1.0204852314       -0.4460859934
 C         -0.3611998462        0.2770527629       -0.1169459194
 H          8.1300101279        3.6915132985        2.7563890716
 H          5.6565490803        3.7725003331        2.8555967490
 H          4.3197449512        2.2182126456        1.5232639941
 H          9.2307874668        1.9840215791        1.3244502070
 H          9.1392200150       -1.5117307016       -1.6028970732
 H          7.9496709818       -3.0984883547       -3.1009046062
 H          5.4790555856       -3.0010491333       -3.2483928902
 H          4.2280852576       -1.3936937177       -1.8959580631
 H          3.8070396637        2.3311461518       -0.9937950461
 H          1.3495917085        2.5084561339       -1.0748735077
 H          0.6618484533       -3.5335854793        1.5744002636
 H          3.1075511610       -3.8087781916        1.7382853236
 H          4.6563731451       -2.0965119126        0.9685326828
 H         -4.1256436300       -2.2860484156        1.0762299086
 H         -6.1403184439       -3.0518489134       -0.2751181689
 H         -8.4067070736       -3.8903522680        0.3421830054
 H         -9.4115947051       -0.3698772539        2.1256790924
 H         -7.1978609795        0.6461440540        1.6165544508
 H         -7.1319644116       -0.1469757902       -1.8214545631
 H         -9.0633907594        1.2612360892       -2.5115887213
 H         -7.5601660892        4.5533640735       -0.6442315912
 H         -5.5541391709        3.3100517573        0.1617440087
 H         -3.6184602398        2.1675408075       -1.0122857368
  69
  -115.658532877200       0.337647677752726      !
 C          7.2538311678        3.0416950008        2.3369432198
 C          5.8755557352        3.0565694178        2.2663104542
 C          5.2062262448        2.1684770213        1.4385769145
 C          5.9057775660        1.2558859123        0.6590301367
 C          7.3026874605        1.2250686747        0.7652480438
 C          7.9656115081        2.1158000928        1.5895632896
 O          8.0747893890        0.3142335944        0.0888763796
 C          7.4327367178       -0.5605322490       -0.7506132183
 C          8.2232439043       -1.4461518382       -1.4597298538
 C          7.6469997024       -2.3396344032       -2.3501487336
 C          6.2798849464       -2.3247763365       -2.5418054921
 C          5.4826133506       -1.4391836491       -1.8334844533
 C          6.0410574397       -0.5644758805       -0.9097558808
 N          5.2634226576        0.3365810115       -0.1773746242
 C          3.8610212497        0.3291973366       -0.2881113946
 C          3.2059897596        1.4350016591       -0.8027768215
 C          1.8108205676        1.5237606529       -0.8989305607
 C          1.0587627716        0.4633570401       -0.4542125162
 C          1.7236849636       -0.6727910963        0.0651629025
 C          0.8192023030       -1.6667758644        0.5088808776
 C          1.3159614071       -2.8211151090        1.0598745803
 C          2.7111195676       -2.9577720256        1.1699532037
 C          3.5909445161       -1.9892497517        0.7475947689
 C          3.1118703422       -0.7942170064        0.1659487714
 C         -0.5106100049       -1.1285085970        0.2673943595
 N         -1.6717199482       -1.6466187388        0.5461547355
 C         -2.7436973290       -0.8735063494        0.2352179551
 C         -4.0315720425       -1.3380993821        0.5423968059
 C         -5.1459084396       -0.5792457940        0.2692340201
 C         -6.4676772107       -1.0642813012        0.6995225354
 C         -6.8862484440       -2.3621267348        0.4142497448
 C         -8.1318145200       -2.7721154777        0.8593608783
 N         -8.9504795782       -2.0000201771        1.5530235654
 C         -8.5488554109       -0.7730082504        1.8378939235
 C         -7.3280615033       -0.2555923344        1.4402543333
 C         -5.0022762435        0.6811782962       -0.3685529927
 C         -6.1815534041        1.4767850776       -0.7474239507
 C         -7.2497731848        0.9101859293       -1.4404656975
 C         -8.3243079273        1.7151188483       -1.7784568472
 N         -8.3974813334        3.0009504427       -1.4796789581
 C         -7.3804735289        3.5429540683       -0.8320328054
 C         -6.2537942848        2.8357307759       -0.4478404179
 C         -3.7468454113        1.1547604442       -0.6709030434
 C         -2.5970321008        0.4084790251       -0.3700648669
 N         -1.3781050676        0.9334454098       -0.6525250751
 C         -0.3607081261        0.1848578873       -0.3328904120
 H          7.7794673271        3.7338697864        2.9753613836
 H          5.3052671991        3.7561759861        2.8576718612
 H          4.1281252949        2.1802956916        1.4081339007
 H          9.0414076198        2.0622611711        1.6371814619
 H          9.2895708010       -1.4167718285       -1.3026568699
 H          8.2710947147       -3.0298095866       -2.8953242178
 H          5.8199002158       -2.9990286489       -3.2475013027
 H          4.4170983035       -1.4267804769       -2.0017842544
 H          3.8053785960        2.2674135829       -1.1437531535
 H          1.3490800181        2.4064887965       -1.3123266782
 H          0.6597802286       -3.6031754663        1.4085932559
 H          3.1043534293       -3.8615654868        1.6121959562
 H          4.6538108275       -2.1414975926        0.8632606822
 H         -4.1203845177       -2.2953412102        1.0337203024
 H         -6.2571170632       -3.0264038660       -0.1587481879
 H         -8.4965896258       -3.7694509458        0.6502002816
 H         -9.2431487901       -0.1755782151        2.4141632652
 H         -7.0432292779        0.7497964037        1.7104158856
 H         -7.2352166292       -0.1323498650       -1.7193678683
 H         -9.1725914597        1.3111112869       -2.3153059139
 H         -7.4775364121        4.5978374200       -0.6098037799
 H         -5.4536331128        3.3202654121        0.0910911300
 H         -3.6174427794        2.1073067201       -1.1622589443
  69
  -115.658160936900       0.227788523841069      !
 C          7.7414333718        1.4300375261        2.8626245285
 C          6.3933652552        1.7256219558        2.9045162220
 C          5.5647031311        1.3664527873        1.8530934033
 C          6.0710511988        0.6902760475        0.7499060759
 C          7.4468941907        0.4335868378        0.6970792838
 C          8.2689045969        0.7931443705        1.7493887002
 O          8.0420776560       -0.1637949003       -0.3848099893
 C          7.2373773887       -0.5018103183       -1.4439219414
 C          7.8541202951       -1.0942503822       -2.5307811483
 C          7.1065694425       -1.5016270906       -3.6250526210
 C          5.7374749198       -1.3277994228       -3.6143414362
 C          5.1146510168       -0.7316987124       -2.5288064449
 C          5.8522581119       -0.2892452409       -1.4378452202
 N          5.2576588833        0.3076790502       -0.3199333790
 C          3.8599965378        0.4454540386       -0.2443242050
 C          3.1994989008        1.2573437303       -1.1508063108
 C          1.8046458494        1.3884663773       -1.1892695827
 C          1.0580780041        0.6724719426       -0.2849551410
 C          1.7299679709       -0.1417630130        0.6580590479
 C          0.8315150399       -0.8346836698        1.5035070396
 C          1.3322919833       -1.6861311770        2.4558673398
 C          2.7268457637       -1.8440971536        2.5367438603
 C          3.6010886002       -1.1825004357        1.7070035899
 C          3.1177556905       -0.2881466786        0.7258700984
 C         -0.5008239535       -0.4536072495        1.0627973219
 N         -1.6574421868       -0.8681673490        1.4919732274
 C         -2.7342535870       -0.3741927650        0.8293801082
 C         -4.0158574139       -0.8142031370        1.1926250629
 C         -5.1339039231       -0.3782133725        0.5208213530
 C         -6.4422442104       -0.9615784640        0.8608314360
 C         -7.2617228818       -1.5119955952       -0.1231400669
 C         -8.4616996742       -2.0877492416        0.2573942761
 N         -8.8812738100       -2.1423907187        1.5099990815
 C         -8.1038533320       -1.6240295656        2.4450322487
 C         -6.8806128022       -1.0308532207        2.1812098018
 C         -5.0019780880        0.5669217615       -0.5300965699
 C         -6.1903216189        1.1074103510       -1.2103329104
 C         -6.2562148222        1.1646063055       -2.6009804318
 C         -7.3938009705        1.6879158890       -3.1920893940
 N         -8.4262480787        2.1495377419       -2.5076340051
 C         -8.3595844570        2.1100579181       -1.1878423443
 C         -7.2761526407        1.6030888621       -0.4908006584
 C         -3.7529557867        1.0104533464       -0.8980990440
 C         -2.5976381460        0.5480096119       -0.2487785100
 N         -1.3829618063        0.9756422714       -0.6772773101
 C         -0.3600238299        0.4786397593       -0.0410494931
 H          8.3893060115        1.7009995393        3.6810916202
 H          5.9737914541        2.2411752342        3.7544393954
 H          4.5146894010        1.6119886237        1.8898322265
 H          9.3207615567        0.5678430016        1.6756256568
 H          8.9225450178       -1.2347100212       -2.4958480039
 H          7.5962693068       -1.9610173972       -4.4688997776
 H          5.1376567602       -1.6576639982       -4.4484455274
 H          4.0419351776       -0.6210699720       -2.5289294818
 H          3.7939649783        1.8091782894       -1.8652762705
 H          1.3392170310        2.0337012975       -1.9176441408
 H          0.6790360021       -2.2295675345        3.1204044069
 H          3.1245448831       -2.5217927430        3.2780839670
 H          4.6633145922       -1.3502612196        1.8053528806
 H         -4.0952809969       -1.5391581086        1.9886439901
 H         -6.9584275978       -1.5052445670       -1.1590148683
 H         -9.1214614259       -2.5318863243       -0.4764105079
 H         -8.4831717981       -1.6906109499        3.4565527456
 H         -6.2830785393       -0.6154496061        2.9786711571
 H         -5.4426897160        0.7890913767       -3.2032174679
 H         -7.4869451558        1.7406803945       -4.2691691504
 H         -9.2207491484        2.5041986301       -0.6643396146
 H         -7.2677872879        1.6039968002        0.5884877599
 H         -3.6335738227        1.7345896114       -1.6898950852
