  69
  -116.105639120000       0.191360045023879      !
 C          7.5343870589        3.0094071873        2.1708146947
 C          6.1558490876        3.0568473566        2.2209363009
 C          5.3959586268        2.1816476869        1.4604118853
 C          6.0035280069        1.2494774228        0.6286656053
 C          7.4032436440        1.1842740199        0.6141064379
 C          8.1564715488        2.0629199005        1.3709213616
 O          8.0912878955        0.2508682865       -0.1197178118
 C          7.3579673354       -0.6080310346       -0.8985233501
 C          8.0631074637       -1.5136817739       -1.6699448514
 C          7.3917729507       -2.3917652999       -2.5072789057
 C          6.0144987916       -2.3396674737       -2.5849522105
 C          5.3028072326       -1.4336575979       -1.8142504655
 C          5.9582371996       -0.5757946984       -0.9396679143
 N          5.2686892688        0.3432168423       -0.1423765346
 C          3.8628039728        0.3827704443       -0.1602327054
 C          3.2076788057        1.5062362930       -0.6349830594
 C          1.8114057513        1.6156874333       -0.6835453076
 C          1.0582237140        0.5570921322       -0.2360963259
 C          1.7231001139       -0.5894018992        0.2597829917
 C          0.8193221460       -1.5849971190        0.7009651881
 C          1.3173660467       -2.7501806421        1.2274912245
 C          2.7132741439       -2.8973040215        1.3130855153
 C          3.5925541421       -1.9330127166        0.8802411344
 C          3.1117262633       -0.7279200360        0.3212471795
 C         -0.5105809296       -1.0453423015        0.4637305247
 N         -1.6718953574       -1.5807141476        0.7065917431
 C         -2.7450027481       -0.8193975476        0.3715075713
 C         -4.0352058823       -1.3176417640        0.6076533664
 C         -5.1527216001       -0.5837147063        0.2834721299
 C         -6.4838560756       -1.1208713068        0.6104447203
 C         -6.8339809214       -2.4242766103        0.2637890453
 C         -8.0944861661       -2.8870429492        0.6017874146
 N         -8.9902808001       -2.1604699227        1.2476431605
 C         -8.6544225997       -0.9288888595        1.5916567864
 C         -7.4254967693       -0.3609181920        1.3019808953
 C         -5.0071425822        0.6932841935       -0.3198382031
 C         -6.1821807430        1.4666438142       -0.7541106880
 C         -7.1902162795        0.8888706220       -1.5239797976
 C         -8.2607708483        1.6747127268       -1.9150413101
 N         -8.3842500112        2.9523391328       -1.5985180369
 C         -7.4240288253        3.5052662917       -0.8775193219
 C         -6.3068805763        2.8172661188       -0.4349902022
 C         -3.7495289874        1.2032266982       -0.5448972496
 C         -2.5985597177        0.4748375006       -0.2070766599
 N         -1.3792848395        1.0204852314       -0.4460859934
 C         -0.3611998462        0.2770527629       -0.1169459194
 H          8.1300101279        3.6915132985        2.7563890716
 H          5.6565490803        3.7725003331        2.8555967490
 H          4.3197449512        2.2182126456        1.5232639941
 H          9.2307874668        1.9840215791        1.3244502070
 H          9.1392200150       -1.5117307016       -1.6028970732
 H          7.9496709818       -3.0984883547       -3.1009046062
 H          5.4790555856       -3.0010491333       -3.2483928902
 H          4.2280852576       -1.3936937177       -1.8959580631
 H          3.8070396637        2.3311461518       -0.9937950461
 H          1.3495917085        2.5084561339       -1.0748735077
 H          0.6618484533       -3.5335854793        1.5744002636
 H          3.1075511610       -3.8087781916        1.7382853236
 H          4.6563731451       -2.0965119126        0.9685326828
 H         -4.1256436300       -2.2860484156        1.0762299086
 H         -6.1403184439       -3.0518489134       -0.2751181689
 H         -8.4067070736       -3.8903522680        0.3421830054
 H         -9.4115947051       -0.3698772539        2.1256790924
 H         -7.1978609795        0.6461440540        1.6165544508
 H         -7.1319644116       -0.1469757902       -1.8214545631
 H         -9.0633907594        1.2612360892       -2.5115887213
 H         -7.5601660892        4.5533640735       -0.6442315912
 H         -5.5541391709        3.3100517573        0.1617440087
 H         -3.6184602398        2.1675408075       -1.0122857368
  69
  -116.105632210000       0.189965899489234      !
 C          7.4042952319        1.4291495482        3.1231057072
 C          6.0289824276        1.5465587524        3.0978920765
 C          5.3136933886        1.1686454827        1.9723357030
 C          5.9633983173        0.6506439456        0.8587076706
 C          7.3614821287        0.5710338039        0.8798913330
 C          8.0704173121        0.9505965175        2.0050099573
 O          8.0893355170        0.1352976290       -0.1984495903
 C          7.3995258015       -0.1805843810       -1.3417527785
 C          8.1495472114       -0.5735283537       -2.4350407144
 C          7.5249825219       -0.9485330540       -3.6147628599
 C          6.1465229013       -0.9435226139       -3.6852827358
 C          5.3898303964       -0.5460520618       -2.5937479964
 C          6.0007269147       -0.1373500869       -1.4150570401
 N          5.2698909713        0.2563105650       -0.2895724130
 C          3.8639794680        0.2948700494       -0.3142171121
 C          3.2073817936        1.1563354011       -1.1761836817
 C          1.8107067269        1.2476056320       -1.2512479276
 C          1.0588633476        0.4415005139       -0.4308787929
 C          1.7256955619       -0.4492127233        0.4435944758
 C          0.8238555874       -1.2301617936        1.2045344661
 C          1.3236146097       -2.1590283539        2.0823006379
 C          2.7195834409       -2.2965357979        2.1805449358
 C          3.5972572452       -1.5343719036        1.4461703974
 C          3.1144430627       -0.5628949905        0.5413577466
 C         -0.5068455229       -0.8048766514        0.7994384607
 N         -1.6667968880       -1.2284730883        1.2106677571
 C         -2.7417218954       -0.6318412615        0.6346940889
 C         -4.0302906701       -1.0290296310        1.0225638478
 C         -5.1495496050       -0.4495136685        0.4717804070
 C         -6.4804551338       -0.8612474395        0.9484406040
 C         -6.8255123502       -2.2090580470        1.0235293477
 C         -8.0872759768       -2.5481982488        1.4823900810
 N         -8.9879075333       -1.6598911071        1.8659626980
 C         -8.6564855547       -0.3811380902        1.8112151626
 C         -7.4273023480        0.0730108073        1.3643071409
 C         -5.0074702263        0.5596815907       -0.5163729206
 C         -6.1874016830        1.1512944035       -1.1689164742
 C         -7.1906272715        0.3558149746       -1.7193362953
 C         -8.2687207142        0.9741698433       -2.3293952939
 N         -8.4042009272        2.2862330224       -2.4194367875
 C         -7.4483964722        3.0425632873       -1.9072900096
 C         -6.3236279330        2.5335542997       -1.2805250816
 C         -3.7517385846        0.9667604396       -0.9028168277
 C         -2.5985459894        0.3901139021       -0.3484239365
 N         -1.3803900970        0.8152579641       -0.7694047598
 C         -0.3603638696        0.2294122223       -0.2090302386
 H          7.9650043914        1.7180141846        3.9980301237
 H          5.4981518647        1.9378000420        3.9518919361
 H          4.2409767233        1.2790347662        1.9606354059
 H          9.1452618884        0.8660703351        1.9834939302
 H          9.2232647165       -0.5860003599       -2.3377380893
 H          8.1184339789       -1.2522029841       -4.4624525259
 H          5.6444641247       -1.2531606183       -4.5888674781
 H          4.3133937262       -0.5656664116       -2.6571246471
 H          3.8053651306        1.7946482242       -1.8113382147
 H          1.3477981418        1.9442095455       -1.9323467683
 H          0.6691828270       -2.7742597756        2.6797895327
 H          3.1152551750       -3.0353083076        2.8622314952
 H          4.6612783429       -1.6808407717        1.5590491529
 H         -4.1180563139       -1.7878058472        1.7855660242
 H         -6.1270931894       -2.9705294978        0.7105418868
 H         -8.3959577413       -3.5837306862        1.5458088234
 H         -9.4173927077        0.3134869778        2.1420366978
 H         -7.2030264596        1.1286326035        1.3501626973
 H         -7.1233217172       -0.7207810073       -1.6817765351
 H         -9.0680369295        0.3905342305       -2.7672327815
 H         -7.5952969588        4.1103106154       -2.0057664347
 H         -5.5741852362        3.1916340421       -0.8672675132
 H         -3.6248334822        1.7228207155       -1.6630340925
  69
  -116.105631470000       0.189817202226733      !
 C          7.5110451648        3.1830549161        1.9123708156
 C          6.1322454354        3.2438295188        1.9301087226
 C          5.3800583094        2.3073728360        1.2379161461
 C          5.9959817070        1.2990799060        0.5073108126
 C          7.3953651574        1.2258892356        0.5240130475
 C          8.1408660651        2.1647019131        1.2130576761
 O          8.0902279658        0.2269992332       -0.1106383654
 C          7.3655182984       -0.6914787541       -0.8270688638
 C          8.0779819730       -1.6609348999       -1.5086268457
 C          7.4152639544       -2.6048048559       -2.2785882805
 C          6.0394189162       -2.5575984541       -2.3787455023
 C          5.3201501238       -1.5877562897       -1.6980182089
 C          5.9668481349       -0.6586268327       -0.8924794284
 N          5.2693587864        0.3288617818       -0.1901083135
 C          3.8633423630        0.3613150588       -0.2206578307
 C          3.2075111962        1.4312370059       -0.8050277464
 C          1.8110323213        1.5323675228       -0.8675441567
 C          1.0586785597        0.5218555884       -0.3190940630
 C          1.7245285596       -0.5696105764        0.2874902612
 C          0.8217182060       -1.5165002403        0.8267723793
 C          1.3207234257       -2.6232410666        1.4663831649
 C          2.7167495223       -2.7612880746        1.5637939685
 C          3.5951705264       -1.8438339638        1.0374482916
 C          3.1132420674       -0.6996090464        0.3634073088
 C         -0.5086453649       -1.0025032389        0.5403304038
 N         -1.6693293870       -1.5095538349        0.8401538089
 C         -2.7432498443       -0.7832866412        0.4368763918
 C         -4.0327901284       -1.2590776890        0.7184042955
 C         -5.1509254190       -0.5615255187        0.3242426750
 C         -6.4826451696       -1.1279530223        0.5955570031
 C         -7.4376387440       -1.2612403772       -0.4105843598
 C         -8.6670072461       -1.8117363030       -0.0904843369
 N         -8.9913280316       -2.2204537937        1.1242203188
 C         -8.0830792584       -2.1047763840        2.0777973193
 C         -6.8204192112       -1.5754422869        1.8711216554
 C         -5.0069115866        0.6692759756       -0.3682898463
 C         -6.1835686449        1.4691525351       -0.7470397051
 C         -6.3151209482        1.9767943250       -2.0380416270
 C         -7.4351824882        2.7303981183       -2.3459594628
 N         -8.3921981327        3.0050855938       -1.4763401177
 C         -8.2618288496        2.5374508715       -0.2466058212
 C         -7.1874253936        1.7707870840        0.1714455314
 C         -3.7500921119        1.1471764228       -0.6584064820
 C         -2.5983299000        0.4464189550       -0.2689046909
 N         -1.3795349386        0.9633359427       -0.5672643582
 C         -0.3606307093        0.2552004264       -0.1699707056
 H          8.1007927483        3.9116012149        2.4456489970
 H          5.6265808583        4.0179639142        2.4863447703
 H          4.3031942558        2.3563463483        1.2759217455
 H          9.2152251713        2.0753973880        1.1949383951
 H          9.1529471650       -1.6564371768       -1.4261310833
 H          7.9789619504       -3.3599715925       -2.8029161996
 H          5.5112048837       -3.2718643989       -2.9911930442
 H          4.2464645529       -1.5525404498       -1.7966367834
 H          3.8062617949        2.2188191707       -1.2404306977
 H          1.3485941612        2.3821770944       -1.3443951073
 H          0.6657983135       -3.3682938318        1.8904143812
 H          3.1118365171       -3.6259019919        2.0769905735
 H          4.6591475478       -1.9969106148        1.1412826678
 H         -4.1227839937       -2.2036332618        1.2334315840
 H         -7.2200605999       -0.9526959802       -1.4217234249
 H         -9.4343661657       -1.9313324796       -0.8441053496
 H         -8.3864145687       -2.4540852234        3.0562483443
 H         -6.1153103326       -1.4915720514        2.6842830148
 H         -5.5652895500        1.7686865156       -2.7865159146
 H         -7.5769148921        3.1357477974       -3.3395370767
 H         -9.0620304161        2.7899272543        0.4367410404
 H         -7.1241784853        1.4243462594        1.1917389680
 H         -3.6204129733        2.0885133704       -1.1708233805
  69
  -116.105622450000       0.188014031941233      !
 C          7.4664831100        1.7229064460        2.9258366841
 C          6.0918177994        1.8485898241        2.9104425621
 C          5.3556500581        1.3634065660        1.8407931605
 C          5.9837523280        0.7295976189        0.7758135605
 C          7.3819479388        0.6452264841        0.7806561227
 C          8.1113923846        1.1300089492        1.8508349859
 O          8.0896761499        0.1032907861       -0.2621957825
 C          7.3781214671       -0.3312573668       -1.3521314342
 C          8.1070040666       -0.8373837054       -2.4127194340
 C          7.4594554931       -1.3372276714       -3.5323996780
 C          6.0796421843       -1.3440465593       -3.5733831734
 C          5.3442104560       -0.8319230202       -2.5156905376
 C          5.9780063465       -0.2956474276       -1.4017213358
 N          5.2685884652        0.2214595603       -0.3129066650
 C          3.8629130019        0.2708764610       -0.3249250600
 C          3.2056946904        1.0374229972       -1.2721291543
 C          1.8093788042        1.1259808687       -1.3516763228
 C          1.0582933194        0.4142496509       -0.4475916153
 C          1.7252359766       -0.3760079299        0.5184207198
 C          0.8230687090       -1.0674039863        1.3614705489
 C          1.3228479666       -1.8928586299        2.3370927858
 C          2.7188163420       -2.0203748786        2.4485701852
 C          3.5965850290       -1.3479306923        1.6314027680
 C          3.1140822084       -0.4822223539        0.6246255919
 C         -0.5077617855       -0.6914705070        0.9100458758
 N         -1.6682111181       -1.0744707025        1.3583477183
 C         -2.7425936752       -0.5491329520        0.7155833007
 C         -4.0317473504       -0.9217570574        1.1254723228
 C         -5.1503080992       -0.4160389394        0.5046933843
 C         -6.4802839630       -0.8901500846        0.9214930123
 C         -7.4127046104       -1.3479355242       -0.0079091599
 C         -8.6417707724       -1.7933620530        0.4478981412
 N         -8.9860022714       -1.8102470279        1.7242886144
 C         -8.0988562866       -1.3875097115        2.6085594097
 C         -6.8391115136       -0.9248715608        2.2674568289
 C         -5.0070473462        0.5184395948       -0.5547177886
 C         -6.1854876371        1.1414371886       -1.1797694971
 C         -6.3131865106        1.2019748514       -2.5658999012
 C         -7.4360463971        1.8071938192       -3.1048129225
 N         -8.3986932343        2.3429609282       -2.3743162168
 C         -8.2718997787        2.3006638018       -1.0589491157
 C         -7.1957287351        1.7179468868       -0.4117910603
 C         -3.7506913621        0.8830216238       -0.9794624595
 C         -2.5983892589        0.3629212735       -0.3701030869
 N         -1.3800132178        0.7450623493       -0.8293829916
 C         -0.3606548857        0.2267509404       -0.2049771412
 H          8.0431890288        2.0934616199        3.7583844054
 H          5.5779374741        2.3293404866        3.7283426314
 H          4.2833621828        1.4810804533        1.8340373425
 H          9.1851120122        1.0372834003        1.8202724830
 H          9.1827207043       -0.8376153205       -2.3379166175
 H          8.0361871088       -1.7277792040       -4.3557139799
 H          5.5601077019       -1.7506826306       -4.4274569126
 H          4.2664114906       -0.8592172048       -2.5543568514
 H          3.8036951279        1.5983032126       -1.9765776189
 H          1.3460582096        1.7465102157       -2.1024736493
 H          0.6685704879       -2.4368446268        3.0002625091
 H          3.1144099822       -2.6781534613        3.2087768947
 H          4.6604852514       -1.4835366464        1.7579019593
 H         -4.1200955873       -1.6396005694        1.9270471884
 H         -7.1779514510       -1.3668148327       -1.0612830935
 H         -9.3916974802       -2.1549164913       -0.2434848244
 H         -8.4174714706       -1.4223823030        3.6423274907
 H         -6.1527467739       -0.5786733215        3.0254471389
 H         -5.5587858927        0.7673286759       -3.2042366402
 H         -7.5758243663        1.8658177912       -4.1765801355
 H         -9.0762959495        2.7568680225       -0.4969195256
 H         -7.1354830774        1.7207849142        0.6658084439
 H         -3.6218128585        1.5984290595       -1.7777209214
  69
  -116.105373640000       0.144492433017151      !
 C          7.2538311678        3.0416950008        2.3369432198
 C          5.8755557352        3.0565694178        2.2663104542
 C          5.2062262448        2.1684770213        1.4385769145
 C          5.9057775660        1.2558859123        0.6590301367
 C          7.3026874605        1.2250686747        0.7652480438
 C          7.9656115081        2.1158000928        1.5895632896
 O          8.0747893890        0.3142335944        0.0888763796
 C          7.4327367178       -0.5605322490       -0.7506132183
 C          8.2232439043       -1.4461518382       -1.4597298538
 C          7.6469997024       -2.3396344032       -2.3501487336
 C          6.2798849464       -2.3247763365       -2.5418054921
 C          5.4826133506       -1.4391836491       -1.8334844533
 C          6.0410574397       -0.5644758805       -0.9097558808
 N          5.2634226576        0.3365810115       -0.1773746242
 C          3.8610212497        0.3291973366       -0.2881113946
 C          3.2059897596        1.4350016591       -0.8027768215
 C          1.8108205676        1.5237606529       -0.8989305607
 C          1.0587627716        0.4633570401       -0.4542125162
 C          1.7236849636       -0.6727910963        0.0651629025
 C          0.8192023030       -1.6667758644        0.5088808776
 C          1.3159614071       -2.8211151090        1.0598745803
 C          2.7111195676       -2.9577720256        1.1699532037
 C          3.5909445161       -1.9892497517        0.7475947689
 C          3.1118703422       -0.7942170064        0.1659487714
 C         -0.5106100049       -1.1285085970        0.2673943595
 N         -1.6717199482       -1.6466187388        0.5461547355
 C         -2.7436973290       -0.8735063494        0.2352179551
 C         -4.0315720425       -1.3380993821        0.5423968059
 C         -5.1459084396       -0.5792457940        0.2692340201
 C         -6.4676772107       -1.0642813012        0.6995225354
 C         -6.8862484440       -2.3621267348        0.4142497448
 C         -8.1318145200       -2.7721154777        0.8593608783
 N         -8.9504795782       -2.0000201771        1.5530235654
 C         -8.5488554109       -0.7730082504        1.8378939235
 C         -7.3280615033       -0.2555923344        1.4402543333
 C         -5.0022762435        0.6811782962       -0.3685529927
 C         -6.1815534041        1.4767850776       -0.7474239507
 C         -7.2497731848        0.9101859293       -1.4404656975
 C         -8.3243079273        1.7151188483       -1.7784568472
 N         -8.3974813334        3.0009504427       -1.4796789581
 C         -7.3804735289        3.5429540683       -0.8320328054
 C         -6.2537942848        2.8357307759       -0.4478404179
 C         -3.7468454113        1.1547604442       -0.6709030434
 C         -2.5970321008        0.4084790251       -0.3700648669
 N         -1.3781050676        0.9334454098       -0.6525250751
 C         -0.3607081261        0.1848578873       -0.3328904120
 H          7.7794673271        3.7338697864        2.9753613836
 H          5.3052671991        3.7561759861        2.8576718612
 H          4.1281252949        2.1802956916        1.4081339007
 H          9.0414076198        2.0622611711        1.6371814619
 H          9.2895708010       -1.4167718285       -1.3026568699
 H          8.2710947147       -3.0298095866       -2.8953242178
 H          5.8199002158       -2.9990286489       -3.2475013027
 H          4.4170983035       -1.4267804769       -2.0017842544
 H          3.8053785960        2.2674135829       -1.1437531535
 H          1.3490800181        2.4064887965       -1.3123266782
 H          0.6597802286       -3.6031754663        1.4085932559
 H          3.1043534293       -3.8615654868        1.6121959562
 H          4.6538108275       -2.1414975926        0.8632606822
 H         -4.1203845177       -2.2953412102        1.0337203024
 H         -6.2571170632       -3.0264038660       -0.1587481879
 H         -8.4965896258       -3.7694509458        0.6502002816
 H         -9.2431487901       -0.1755782151        2.4141632652
 H         -7.0432292779        0.7497964037        1.7104158856
 H         -7.2352166292       -0.1323498650       -1.7193678683
 H         -9.1725914597        1.3111112869       -2.3153059139
 H         -7.4775364121        4.5978374200       -0.6098037799
 H         -5.4536331128        3.3202654121        0.0910911300
 H         -3.6174427794        2.1073067201       -1.1622589443
  69
  -116.104990690000       9.635038830177131E-002 !
 C          7.7414333718        1.4300375261        2.8626245285
 C          6.3933652552        1.7256219558        2.9045162220
 C          5.5647031311        1.3664527873        1.8530934033
 C          6.0710511988        0.6902760475        0.7499060759
 C          7.4468941907        0.4335868378        0.6970792838
 C          8.2689045969        0.7931443705        1.7493887002
 O          8.0420776560       -0.1637949003       -0.3848099893
 C          7.2373773887       -0.5018103183       -1.4439219414
 C          7.8541202951       -1.0942503822       -2.5307811483
 C          7.1065694425       -1.5016270906       -3.6250526210
 C          5.7374749198       -1.3277994228       -3.6143414362
 C          5.1146510168       -0.7316987124       -2.5288064449
 C          5.8522581119       -0.2892452409       -1.4378452202
 N          5.2576588833        0.3076790502       -0.3199333790
 C          3.8599965378        0.4454540386       -0.2443242050
 C          3.1994989008        1.2573437303       -1.1508063108
 C          1.8046458494        1.3884663773       -1.1892695827
 C          1.0580780041        0.6724719426       -0.2849551410
 C          1.7299679709       -0.1417630130        0.6580590479
 C          0.8315150399       -0.8346836698        1.5035070396
 C          1.3322919833       -1.6861311770        2.4558673398
 C          2.7268457637       -1.8440971536        2.5367438603
 C          3.6010886002       -1.1825004357        1.7070035899
 C          3.1177556905       -0.2881466786        0.7258700984
 C         -0.5008239535       -0.4536072495        1.0627973219
 N         -1.6574421868       -0.8681673490        1.4919732274
 C         -2.7342535870       -0.3741927650        0.8293801082
 C         -4.0158574139       -0.8142031370        1.1926250629
 C         -5.1339039231       -0.3782133725        0.5208213530
 C         -6.4422442104       -0.9615784640        0.8608314360
 C         -7.2617228818       -1.5119955952       -0.1231400669
 C         -8.4616996742       -2.0877492416        0.2573942761
 N         -8.8812738100       -2.1423907187        1.5099990815
 C         -8.1038533320       -1.6240295656        2.4450322487
 C         -6.8806128022       -1.0308532207        2.1812098018
 C         -5.0019780880        0.5669217615       -0.5300965699
 C         -6.1903216189        1.1074103510       -1.2103329104
 C         -6.2562148222        1.1646063055       -2.6009804318
 C         -7.3938009705        1.6879158890       -3.1920893940
 N         -8.4262480787        2.1495377419       -2.5076340051
 C         -8.3595844570        2.1100579181       -1.1878423443
 C         -7.2761526407        1.6030888621       -0.4908006584
 C         -3.7529557867        1.0104533464       -0.8980990440
 C         -2.5976381460        0.5480096119       -0.2487785100
 N         -1.3829618063        0.9756422714       -0.6772773101
 C         -0.3600238299        0.4786397593       -0.0410494931
 H          8.3893060115        1.7009995393        3.6810916202
 H          5.9737914541        2.2411752342        3.7544393954
 H          4.5146894010        1.6119886237        1.8898322265
 H          9.3207615567        0.5678430016        1.6756256568
 H          8.9225450178       -1.2347100212       -2.4958480039
 H          7.5962693068       -1.9610173972       -4.4688997776
 H          5.1376567602       -1.6576639982       -4.4484455274
 H          4.0419351776       -0.6210699720       -2.5289294818
 H          3.7939649783        1.8091782894       -1.8652762705
 H          1.3392170310        2.0337012975       -1.9176441408
 H          0.6790360021       -2.2295675345        3.1204044069
 H          3.1245448831       -2.5217927430        3.2780839670
 H          4.6633145922       -1.3502612196        1.8053528806
 H         -4.0952809969       -1.5391581086        1.9886439901
 H         -6.9584275978       -1.5052445670       -1.1590148683
 H         -9.1214614259       -2.5318863243       -0.4764105079
 H         -8.4831717981       -1.6906109499        3.4565527456
 H         -6.2830785393       -0.6154496061        2.9786711571
 H         -5.4426897160        0.7890913767       -3.2032174679
 H         -7.4869451558        1.7406803945       -4.2691691504
 H         -9.2207491484        2.5041986301       -0.6643396146
 H         -7.2677872879        1.6039968002        0.5884877599
 H         -3.6335738227        1.7345896114       -1.6898950852
