  91
       -136.93292463
 C          0.3652455224        5.4852340613        1.1657628184
 C         -0.2437633754        4.7740253945       -0.0475208541
 C          0.2498098756        5.4186684221       -1.3473271903
 C         -1.7495886459        4.7882742883        0.0273074976
 C         -2.5924721180        5.8776203757        0.0664257893
 C         -3.9602373964        5.6661736224        0.1708809959
 C         -4.4675667724        4.3789329781        0.2477482689
 C         -3.6258505022        3.2804427847        0.2041816170
 C         -2.2594020663        3.4819354083        0.0790849268
 C         -1.1499658110        2.5453589571        0.0198681236
 C          0.0594400238        3.2895486848       -0.0256438074
 C          1.3416637571        2.7563858490       -0.0404823128
 C          1.4569997876        1.3686606803       -0.0017307032
 C          2.4379448712        0.3011912113        0.0211251548
 C          3.8206149374        0.3003651748        0.0178235150
 C          4.4992323578       -0.9163102848        0.0397090593
 N          5.9012235244       -0.9393843671        0.0260430218
 C          6.6048503096       -0.0266825339       -0.7641661498
 C          6.1028983385        0.3719122394       -2.0035928655
 C          6.7986686704        1.2790000192       -2.7784703939
 C          8.0057776939        1.7981993347       -2.3397358737
 C          8.5104203302        1.4045397992       -1.1110852666
 C          7.8179376056        0.5047089406       -0.3248137108
 C          6.5858975946       -1.8769348023        0.8047391349
 C          7.7582987984       -2.4700142288        0.3356839479
 C          8.4276322376       -3.3973968667        1.1099271626
 C          7.9396002701       -3.7562438499        2.3558567839
 C          6.7732673007       -3.1741317861        2.8248033393
 C          6.1011214736       -2.2396983789        2.0617143855
 C          3.7858283944       -2.1201574164        0.0727967982
 C          2.4042039374       -2.1432648513        0.0925131269
 C          1.7253832729       -0.9391468050        0.0632093872
 N          0.3694693534       -0.6613883926        0.0626452705
 C         -0.9130521997       -1.1784919835        0.0723897218
 C         -1.3506277301       -2.4894653986        0.1138161984
 C         -2.7103092287       -2.7352118133        0.1030731474
 C         -3.6339610035       -1.6887571325        0.0119081176
 N         -5.0073988705       -1.9617859356       -0.0250175076
 C         -5.9080475312       -1.0718343338        0.5704591375
 C         -5.5866872332       -0.4339141931        1.7693691940
 C         -6.4668275325        0.4649102219        2.3390725999
 C         -7.6843948814        0.7344771219        1.7352528110
 C         -8.0141747771        0.0956253489        0.5512350235
 C         -7.1354339331       -0.7962310006       -0.0324379541
 C         -5.4836304584       -3.0863951955       -0.7058354321
 C         -4.8740822012       -3.5171879343       -1.8843124013
 C         -5.3474720289       -4.6336855491       -2.5452824165
 C         -6.4367224978       -5.3331858210       -2.0520314570
 C         -7.0493241943       -4.9069479853       -0.8848042090
 C         -6.5780563424       -3.7968297649       -0.2118906140
 C         -3.1932539330       -0.3679819506       -0.0376268883
 C         -1.8410708900       -0.0882897694        0.0267222669
 C         -1.0722462743        1.1477260135        0.0182769308
 C          0.2432472934        0.6922617645        0.0241138620
 H          0.0750627969        6.5331579859        1.1740257995
 H          1.4505044319        5.4262172028        1.1365904889
 H          0.0167162104        5.0211021540        2.0859936642
 H          1.3327413253        5.3505617676       -1.4178901611
 H         -0.0354567076        6.4675428775       -1.3799521490
 H         -0.1865795592        4.9129697215       -2.2061095114
 H         -2.2007905625        6.8835564962        0.0216220038
 H         -4.6328563764        6.5107604537        0.2013178023
 H         -5.5329069695        4.2272265454        0.3446138816
 H         -4.0384886607        2.2890859612        0.2845238860
 H          2.2068386380        3.4008207800       -0.0745381075
 H          4.3708959954        1.2288097990       -0.0033531559
 H          5.1669316630       -0.0380154665       -2.3538749766
 H          6.3989056615        1.5754576846       -3.7371535313
 H          8.5486323814        2.5036630430       -2.9500919223
 H          9.4474718244        1.8084517000       -0.7568141432
 H          8.2089519474        0.2092780196        0.6377417459
 H          8.1354291171       -2.2006903405       -0.6400066645
 H          9.3327689262       -3.8504097088        0.7328868466
 H          8.4637513110       -4.4840533428        2.9562236919
 H          6.3871753437       -3.4436015434        3.7969291864
 H          5.1964111299       -1.7811223686        2.4332821680
 H          4.3347756573       -3.0498212211        0.0817420719
 H          1.8744807824       -3.0827906874        0.1180710619
 H         -0.6485741183       -3.3071704169        0.1637916088
 H         -3.0711213490       -3.7511945123        0.1559873968
 H         -4.6417764625       -0.6469944836        2.2473978644
 H         -6.2023497646        0.9529817932        3.2656714241
 H         -8.3706679434        1.4361221501        2.1844717434
 H         -8.9594588969        0.3011309721        0.0707861141
 H         -7.3903319895       -1.2814206638       -0.9631757562
 H         -4.0315995517       -2.9674229020       -2.2777369210
 H         -4.8675081941       -4.9540363904       -3.4583601199
 H         -6.8058807140       -6.2029511162       -2.5736438822
 H         -7.8965499319       -5.4481896051       -0.4899741309
 H         -7.0516705547       -3.4715686529        0.7028228021
 H         -3.9190738765        0.4211830001       -0.1371745652
