38
 energy: -65.650815099450 gnorm: 0.000040223914 xtb: 6.7.1 (edcfbbe)
O           -3.18621292135127        2.33710900942759       -0.00005271090019
C           -4.08717659741686        1.35566865096761       -0.00001869983121
C           -5.44131725057627        1.69829434355747       -0.00001286659218
C           -6.42240655747811        0.73126746695798        0.00002551898226
C           -6.05232561249179       -0.60557127762583        0.00005790850806
Br          -7.39921617907442       -1.95648922977312        0.00011587006474
C           -4.72602697386480       -0.98067186798074        0.00005014671259
C           -3.72320807649943       -0.01029652403172        0.00001104288957
C           -2.32161691913441       -0.36830859327252        0.00000242981395
N           -1.34547300213284        0.51705197540995       -0.00000288183837
C           -0.17893546276227       -0.18907104987927       -0.00000804744555
C           -0.47086429661530       -1.56257183059150       -0.00000837615976
C            0.53979068288483       -2.52037385792885       -0.00001399950852
C            1.83519139467278       -2.07081622609475       -0.00001845829314
C            2.17761433877012       -0.69740874817046       -0.00001515594240
C            3.54635107246346       -0.24383103474477       -0.00001513097316
C            4.64753219263327       -1.11769963063000       -0.00003083459606
C            5.93671055227183       -0.64780244279425       -0.00002686638008
C            6.19099851430265        0.72496646779429       -0.00000613701800
C            5.14150243895555        1.60479954482033        0.00000727864535
C            3.81192895995747        1.14857750629857        0.00000153358669
C            2.73816977819076        2.08016984931959        0.00001074759898
C            1.45132602545867        1.65957813207157        0.00000308338653
C            1.15161174369122        0.27472982783312       -0.00000833534006
N           -1.83744518400745       -1.64824516232079       -0.00000091096068
H           -2.27824870276961        1.93190548078254       -0.00004399591048
H           -5.69858510164597        2.74525884058284       -0.00003760640127
H           -7.46521884214384        1.00722042743985        0.00003172262265
H           -4.47688726838164       -2.03083120533547        0.00007775846238
H            0.31096101201353       -3.57540932837158       -0.00001402383258
H            2.62075625409640       -2.80849029849765       -0.00002203182814
H            4.49173066556761       -2.18483636819849       -0.00004762444171
H            6.76268595338267       -1.34407335454611       -0.00003991096044
H            7.20944254800481        1.08419158202692       -0.00000173157690
H            5.32043678059152        2.67073708325411        0.00002195056241
H            2.97625325599737        3.13416902929259        0.00002297165544
H            0.62570973277791        2.35448640718158        0.00000810748766
H           -2.37554094834337       -2.49738459422022       -0.00000173423964
