38
 energy: -65.650814894391 gnorm: 0.000033892448 xtb: 6.7.1 (edcfbbe)
O           -1.29530295048397        2.84743827827045       -0.00177934296678
C           -2.30515041161256        1.97838623151567       -0.00844305500762
C           -3.60982401449928        2.47727925110884       -0.00940485323389
C           -4.69744170655385        1.63183235298984       -0.01569313385941
C           -4.48649108376592        0.26086614040285       -0.02130620861117
Br          -5.98224334212032       -0.92308267960441       -0.02935887156845
C           -3.21324304459108       -0.26696681657201       -0.02096709091419
C           -2.10367248218373        0.57924491501121       -0.01464612695436
C           -0.75375083365785        0.05929739638631       -0.01398326505865
N            0.31982804550433        0.82354414775836       -0.00389771586181
C            1.39514234041243       -0.01508534160234       -0.00666274793618
C            0.94342056988422       -1.34457618623126       -0.01923214847708
C            1.83386224439197       -2.41500593461468       -0.02474732885628
C            3.17322713698342       -2.12154529753012       -0.01755259989978
C            3.67524814288040       -0.79817865747631       -0.00473138944980
C            5.08798043252814       -0.50960227442610        0.00265368324109
C            6.07813412677326       -1.50749912354436       -0.00369084942945
C            7.41381357499032       -1.19335797887880        0.00351725566263
C            7.82860117726450        0.13963884329805        0.01761997541361
C            6.89047718280366        1.13735434657057        0.02410975993167
C            5.51629807244213        0.84156972434440        0.01674499234035
C            4.56010283560046        1.89345004905348        0.02316391302284
C            3.23256421417687        1.62793433665742        0.01539120547502
C            2.77118712063248        0.28831740049406        0.00132203499624
N           -0.42368032757153       -1.26869281006963       -0.02354827493819
H           -0.44113978957006        2.33868544348561       -0.00087728094351
H           -3.74274638823044        3.54715153716964       -0.00490132872098
H           -5.70075447993988        2.02802644971270       -0.01612646574078
H           -3.08888820676765       -1.33907684335952       -0.02518301905665
H            1.48199569564732       -3.43557021506167       -0.03430346342522
H            3.86624860800472       -2.94674411250044       -0.02173459371480
H            5.79737055106180       -2.54869780289246       -0.01470090143537
H            8.15166061199081       -1.98239802559060       -0.00180154211586
H            8.88236587336101        0.37588955483860        0.02325397694566
H            7.19419706463918        2.17459892598506        0.03495479983421
H            4.92100760703337        2.91189268716611        0.03419338856875
H            2.49497459740268        2.41564694575138        0.01980041785938
H           -1.05787426123561       -2.04862501703695       -0.03261982962614
