  56
  -95.1364466190000        1.00000000000000      !
 N          7.0364075425       -1.6864077634        0.8074751682
 C          6.0663771381       -1.0759319404        0.7152997550
 C          4.8746214849       -0.3398007244        0.5982600686
 C          4.7880371680        0.7315890759       -0.3006294858
 C          3.6102301947        1.4284129669       -0.4275764832
 C          2.4816685900        1.0773201243        0.3225364360
 C          1.2205815228        1.7966902577        0.1305360845
 C          1.2002099900        3.1757849568        0.1084139269
 C         -0.0150035783        3.8756438366        0.0042336690
 C         -0.0203049571        5.2762254745        0.0069568947
 N         -0.0250649884        6.4284948237        0.0099542158
 C         -1.2249107324        3.1673765338       -0.1020032187
 C         -1.2357068908        1.7880581767       -0.1280309910
 C         -2.4921949550        1.0616400788       -0.3226317539
 C         -2.5934705540        0.0144047812       -1.2470591058
 C         -3.7654371072       -0.6893483329       -1.3910730675
 C         -4.8803974889       -0.3617709676       -0.6090478133
 C         -6.0712790625       -1.0981713985       -0.7336858433
 N         -7.0421765121       -1.7070462556       -0.8319331059
 C         -4.7998843986        0.7082384879        0.2920891097
 C         -3.6245101102        1.4080439658        0.4242824787
 C         -0.0049829197        1.0926995317        0.0003699389
 N          0.0006598040       -0.3161578364        0.0000091702
 C         -0.6755804102       -1.0111176668        0.9743632235
 C         -1.3282644215       -0.3740980090        2.0378703537
 C         -2.0402887507       -1.1063904737        2.9581246874
 C         -2.1094682225       -2.5022387432        2.8601710589
 C         -1.4216218827       -3.1591933194        1.8635370936
 C         -0.6914598164       -2.4324381618        0.9275123192
 O          0.0198853267       -3.1164245707        0.0044722363
 C          0.7221338531       -2.4257921063       -0.9205392653
 C          1.4644103075       -3.1451061825       -1.8525975779
 C          2.1446725098       -2.4817021754       -2.8502156085
 C          2.0555440743       -1.0873770158       -2.9531835437
 C          1.3314987115       -0.3622477431       -2.0367783982
 C          0.6862996636       -1.0049647894       -0.9720307648
 C          2.5896754947        0.0304119532        1.2465345162
 C          3.7640339968       -0.6704287646        1.3852257884
 H          5.6502182795        0.9967083725       -0.8941882516
 H          3.5422259279        2.2424404932       -1.1344462684
 H          2.1192725881        3.7302392959        0.2212705489
 H         -2.1478358679        3.7156212369       -0.2135398092
 H         -1.7527702713       -0.2246048472       -1.8830935300
 H         -3.8375859100       -1.4938042762       -2.1083263572
 H         -5.6650149548        0.9702803282        0.8828111138
 H         -3.5614593905        2.2211471594        1.1326913077
 H         -1.2583673617        0.6969378126        2.1310273781
 H         -2.5436954068       -0.6002065936        3.7661042354
 H         -2.6811685183       -3.0644844376        3.5805017926
 H         -1.4218414125       -4.2347670283        1.7868751183
 H          1.4801097645       -4.2202447027       -1.7721868020
 H          2.7261280297       -3.0380521834       -3.5672690884
 H          2.5535070233       -0.5768216336       -3.7618000415
 H          1.2463511861        0.7076613746       -2.1335126697
 H          1.7520972416       -0.2109230387        1.8858523919
 H          3.8411902162       -1.4752038862        2.1016218329
