  56
  -95.4309833100000       0.251282212611235      !
 N          7.0364075425       -1.6864077634        0.8074751682
 C          6.0663771381       -1.0759319404        0.7152997550
 C          4.8746214849       -0.3398007244        0.5982600686
 C          4.7880371680        0.7315890759       -0.3006294858
 C          3.6102301947        1.4284129669       -0.4275764832
 C          2.4816685900        1.0773201243        0.3225364360
 C          1.2205815228        1.7966902577        0.1305360845
 C          1.2002099900        3.1757849568        0.1084139269
 C         -0.0150035783        3.8756438366        0.0042336690
 C         -0.0203049571        5.2762254745        0.0069568947
 N         -0.0250649884        6.4284948237        0.0099542158
 C         -1.2249107324        3.1673765338       -0.1020032187
 C         -1.2357068908        1.7880581767       -0.1280309910
 C         -2.4921949550        1.0616400788       -0.3226317539
 C         -2.5934705540        0.0144047812       -1.2470591058
 C         -3.7654371072       -0.6893483329       -1.3910730675
 C         -4.8803974889       -0.3617709676       -0.6090478133
 C         -6.0712790625       -1.0981713985       -0.7336858433
 N         -7.0421765121       -1.7070462556       -0.8319331059
 C         -4.7998843986        0.7082384879        0.2920891097
 C         -3.6245101102        1.4080439658        0.4242824787
 C         -0.0049829197        1.0926995317        0.0003699389
 N          0.0006598040       -0.3161578364        0.0000091702
 C         -0.6755804102       -1.0111176668        0.9743632235
 C         -1.3282644215       -0.3740980090        2.0378703537
 C         -2.0402887507       -1.1063904737        2.9581246874
 C         -2.1094682225       -2.5022387432        2.8601710589
 C         -1.4216218827       -3.1591933194        1.8635370936
 C         -0.6914598164       -2.4324381618        0.9275123192
 O          0.0198853267       -3.1164245707        0.0044722363
 C          0.7221338531       -2.4257921063       -0.9205392653
 C          1.4644103075       -3.1451061825       -1.8525975779
 C          2.1446725098       -2.4817021754       -2.8502156085
 C          2.0555440743       -1.0873770158       -2.9531835437
 C          1.3314987115       -0.3622477431       -2.0367783982
 C          0.6862996636       -1.0049647894       -0.9720307648
 C          2.5896754947        0.0304119532        1.2465345162
 C          3.7640339968       -0.6704287646        1.3852257884
 H          5.6502182795        0.9967083725       -0.8941882516
 H          3.5422259279        2.2424404932       -1.1344462684
 H          2.1192725881        3.7302392959        0.2212705489
 H         -2.1478358679        3.7156212369       -0.2135398092
 H         -1.7527702713       -0.2246048472       -1.8830935300
 H         -3.8375859100       -1.4938042762       -2.1083263572
 H         -5.6650149548        0.9702803282        0.8828111138
 H         -3.5614593905        2.2211471594        1.1326913077
 H         -1.2583673617        0.6969378126        2.1310273781
 H         -2.5436954068       -0.6002065936        3.7661042354
 H         -2.6811685183       -3.0644844376        3.5805017926
 H         -1.4218414125       -4.2347670283        1.7868751183
 H          1.4801097645       -4.2202447027       -1.7721868020
 H          2.7261280297       -3.0380521834       -3.5672690884
 H          2.5535070233       -0.5768216336       -3.7618000415
 H          1.2463511861        0.7076613746       -2.1335126697
 H          1.7520972416       -0.2109230387        1.8858523919
 H          3.8411902162       -1.4752038862        2.1016218329
  56
  -95.4309800500000       0.250416854025696      !
 N          6.7834638445       -1.6714612280        2.0860285062
 C          5.8519499424       -1.0633796298        1.7937888709
 C          4.7078617438       -0.3346350445        1.4253267919
 C          4.0057671778       -0.6667325835        0.2595852782
 C          2.8717785009        0.0305987763       -0.0826515508
 C          2.3993771907        1.0756531959        0.7215681598
 C          1.1679731440        1.7947027437        0.3901261032
 C          1.1375363600        3.1739652280        0.4122572749
 C         -0.0150752183        3.8747686786        0.0174197750
 C         -0.0213043375        5.2754418795        0.0264383717
 N         -0.0268736855        6.4278120169        0.0351268177
 C         -1.1613043449        3.1676594135       -0.3879300576
 C         -1.1787633393        1.7883694723       -0.3787876726
 C         -2.4024529770        1.0616721873       -0.7262152446
 C         -3.1164392110        1.4058287383       -1.8798884150
 C         -4.2380864764        0.7042015378       -2.2523703965
 C         -4.6883758756       -0.3645072044       -1.4661736036
 C         -5.8203341894       -1.1036115256       -1.8519583487
 N         -6.7411016972       -1.7148021382       -2.1694503978
 C         -4.0052887587       -0.6888819750       -0.2871644676
 C         -2.8814012293        0.0162882222        0.0727553680
 C         -0.0038562486        1.0920720914        0.0047853854
 N         -0.0010643424       -0.3170577605        0.0073292181
 C          0.2202616811       -1.0055138176        1.1762943833
 C          0.3763315395       -0.3626034275        2.4112231803
 C          0.6530138660       -1.0884426802        3.5453781617
 C          0.7645317741       -2.4837465548        3.4902217052
 C          0.5497108714       -3.1468286370        2.3020293039
 C          0.2627428978       -2.4267754292        1.1459586622
 O         -0.0028745057       -3.1169046771        0.0151839889
 C         -0.2672389044       -2.4328834049       -1.1195708151
 C         -0.5555074329       -3.1585617582       -2.2716699615
 C         -0.7688315296       -2.5014600250       -3.4635063196
 C         -0.6540562864       -1.1066209116       -3.5264154584
 C         -0.3762202079       -0.3752321389       -2.3962336714
 C         -0.2223688542       -1.0118007222       -1.1576529787
 C          3.1314742323        1.4266794299        1.8621726066
 C          4.2639696068        0.7334714701        2.2163514555
 H          4.3664148035       -1.4689780353       -0.3674306960
 H          2.3618268686       -0.2110589622       -1.0045573084
 H          2.0218094662        3.7278912112        0.6881158053
 H         -2.0495042185        3.7161103980       -0.6619135677
 H         -2.7620385844        2.2182133630       -2.4975255574
 H         -4.7750841214        0.9637651793       -3.1525593401
 H         -4.3718888287       -1.4919492059        0.3353127071
 H         -2.3836921355       -0.2212331026        1.0025036930
 H          0.2681135343        0.7080469757        2.4633299766
 H          0.7783539253       -0.5777621443        4.4865472237
 H          0.9940104253       -3.0406725218        4.3840047838
 H          0.5881577954       -4.2222527487        2.2365417214
 H         -0.5959939348       -4.2335484937       -2.2005289465
 H         -0.9999897610       -3.0627666177       -4.3540918948
 H         -0.7777492704       -0.6009776764       -4.4705100528
 H         -0.2651197662        0.6948969271       -2.4536362805
 H          2.7829570847        2.2378672866        2.4846057748
 H          4.8150417330        0.9987741850        3.1062830924
  56
  -95.4309779600000       0.249863637276663      !
 N          7.0568660489       -1.6544350083        0.8327386840
 C          6.0803381418       -1.0550788425        0.7332603824
 C          4.8824693279       -0.3301850405        0.6077853597
 C          4.7923934386        0.7387901359       -0.2936019772
 C          3.6105342362        1.4274828106       -0.4264141594
 C          2.4813456460        1.0710208348        0.3204421280
 C          1.2192847249        1.7880904153        0.1260935730
 C          1.2003269537        3.1671189821        0.1017464385
 C         -0.0139178950        3.8680017272       -0.0059405296
 C         -0.0179204081        5.2686390767       -0.0078315228
 N         -0.0197734196        6.4211283340       -0.0093690216
 C         -1.2240292225        3.1603820136       -0.1105473460
 C         -1.2370989630        1.7808397892       -0.1318316697
 C         -2.4974624591        1.0598972216       -0.3200717847
 C         -3.6276671537        1.4242583538        0.4219931901
 C         -4.8097645991        0.7352633350        0.2949604064
 C         -4.8996312309       -0.3430827696       -0.5954433442
 C         -6.0982541100       -1.0676775897       -0.7149189898
 N         -7.0758063148       -1.6665623827       -0.8098576885
 C         -3.7863489079       -0.6901231201       -1.3713016195
 C         -2.6075863073        0.0035905753       -1.2330159783
 C         -0.0067775069        1.0843159411       -0.0033230900
 N          0.0004460284       -0.3244972660       -0.0048944753
 C         -0.6756682775       -1.0226254093        0.9672829694
 C         -1.3342283547       -0.3887435386        2.0291202649
 C         -2.0465888576       -1.1242353496        2.9464126075
 C         -2.1101569303       -2.5199801265        2.8474847490
 C         -1.4165438233       -3.1737335180        1.8526501424
 C         -0.6859833607       -2.4438888314        0.9197179718
 O          0.0315760614       -3.1246524747       -0.0008478905
 C          0.7329103616       -2.4309382785       -0.9241564081
 C          1.4811331299       -3.1470119969       -1.8539699964
 C          2.1609800947       -2.4808042900       -2.8499225457
 C          2.0650271806       -1.0872929145       -2.9539183428
 C          1.3350833647       -0.3653736244       -2.0396341614
 C          0.6906332691       -1.0105268905       -0.9760202447
 C          2.5918825973        0.0249537385        1.2449653535
 C          3.7702821872       -0.6680606168        1.3892976597
 H          5.6554228683        1.0092583824       -0.8835031042
 H          3.5402008533        2.2401052271       -1.1346331683
 H          2.1196624526        3.7208932719        0.2155217686
 H         -2.1461429307        3.7095426886       -0.2240684637
 H         -3.5580493237        2.2440302153        1.1221102944
 H         -5.6732582299        1.0126026121        0.8810280433
 H         -3.8653677457       -1.5012145227       -2.0803597258
 H         -1.7689804806       -0.2500835061       -1.8660655473
 H         -1.2676322497        0.6822259487        2.1238981194
 H         -2.5548903805       -0.6206060456        3.7528183279
 H         -2.6829482846       -3.0844776470        3.5649451508
 H         -1.4128058460       -4.2490214909        1.7752579180
 H          1.5010922047       -4.2218445707       -1.7737056851
 H          2.7463611215       -3.0344987799       -3.5657276890
 H          2.5618458049       -0.5748365905       -3.7619401857
 H          1.2448538714        0.7037736744       -2.1372282769
 H          1.7533149346       -0.2214363053        1.8811044987
 H          3.8498445565       -1.4711288119        2.1073352689
  56
  -95.4309725500000       0.248437296086405      !
 N          6.7839559910       -1.7141069891        2.0073384680
 C          5.8505146132       -1.1026515763        1.7293634084
 C          4.7047326088       -0.3622796346        1.3897490969
 C          4.0107520480       -0.6436992137        0.2061026037
 C          2.8735142289        0.0616570198       -0.1086177221
 C          2.3908624006        1.0640192658        0.7417374964
 C          1.1531547659        1.7876417301        0.4411634588
 C          1.1151117426        3.1648419935        0.5113913524
 C         -0.0462756127        3.8710519287        0.1504012970
 C         -0.0604267469        5.2708130221        0.2031379403
 N         -0.0702563819        6.4223979692        0.2447045943
 C         -1.1928505372        3.1708502130       -0.2623835475
 C         -1.2023611181        1.7914094903       -0.3001230569
 C         -2.4272773511        1.0684707252       -0.6471996417
 C         -2.8748892588       -0.0152956855        0.1188851961
 C         -4.0058023499       -0.7114912295       -0.2357094445
 C         -4.7294444907       -0.3394475656       -1.3759068142
 C         -5.8719994510       -1.0654495127       -1.7545754333
 N         -6.8024914710       -1.6652865290       -2.0660914370
 C         -4.3089947396        0.7649589369       -2.1289636965
 C         -3.1793845647        1.4566650593       -1.7624879552
 C         -0.0161104021        1.0913476119        0.0408823194
 N          0.0025120618       -0.3166095370       -0.0215690724
 C          0.2449021408       -1.0552178320        1.1114169569
 C          0.3931628847       -0.4683756681        2.3751024200
 C          0.6905548926       -1.2411457380        3.4721113487
 C          0.8323825795       -2.6298069398        3.3497225363
 C          0.6276055929       -3.2400948358        2.1318208453
 C          0.3195556461       -2.4724043571        1.0125427828
 O          0.0674867732       -3.1123122611       -0.1502858765
 C         -0.2162119482       -2.3804092092       -1.2498666383
 C         -0.4842755603       -3.0563331774       -2.4368772726
 C         -0.7162469301       -2.3476716601       -3.5950376042
 C         -0.6435990664       -0.9485578172       -3.5885466817
 C         -0.3858551333       -0.2661226893       -2.4233404420
 C         -0.2095795965       -0.9583504252       -1.2183305481
 C          3.1151671848        1.3667412282        1.9005679413
 C          4.2508209433        0.6649245605        2.2275767516
 H          4.3794504228       -1.4135980884       -0.4557974009
 H          2.3683210445       -0.1402825066       -1.0427129250
 H          1.9982935755        3.7145032199        0.7988321622
 H         -2.0883151370        3.7226094362       -0.5043137213
 H         -2.3484749387       -0.2892258066        1.0223113462
 H         -4.3476418181       -1.5435692818        0.3623186254
 H         -4.8764564014        1.0604956382       -2.9988897581
 H         -2.8497168714        2.2974087131       -2.3553175052
 H          0.2620287029        0.5961941654        2.4777791598
 H          0.8088350510       -0.7735880667        4.4363172222
 H          1.0783047274       -3.2234714291        4.2150128369
 H          0.6905565873       -4.3100209047        2.0150114121
 H         -0.4940888097       -4.1342742966       -2.4187944835
 H         -0.9299737047       -2.8707475108       -4.5128675354
 H         -0.7834563659       -0.4004807919       -4.5063481240
 H         -0.3074537215        0.8084260690       -2.4280306502
 H          2.7579315030        2.1459158538        2.5580158146
 H          4.7951776725        0.8908077587        3.1323423281
