133
 energy: -188.604751333896 gnorm: 0.000048009291 xtb: 6.7.1 (edcfbbe)
C           13.19038031912679       -3.01586052175868       -3.38596894634398
C           13.69651736791947       -2.56160617117142       -2.05028323051422
C           14.69841191509706       -3.27746731153917       -1.39959002707495
C           15.17353745621215       -2.85738430014280       -0.16970745482628
C           14.65780754051175       -1.72644030630875        0.43467405285164
C           13.65685841838819       -0.99591452543838       -0.20464056363530
N           13.12036878596079        0.15096423044801        0.39349556766582
C           13.95030690059621        1.00929326139912        1.12199065687940
C           15.25412850145231        1.26585173789045        0.69440078390621
C           16.06992857030503        2.11144669436511        1.42059196732638
C           15.60207591085649        2.71837320803323        2.57572714889811
C           14.30736128484466        2.46863192292703        3.00359476128873
C           13.48530767674912        1.62029696606404        2.28798292141614
C           11.76141642921166        0.43409329771293        0.26151584763376
C           11.32372040763881        1.76052075159576        0.13742585672176
C            9.98761115427055        2.05863628635543       -0.00799979395880
C            9.05572054794226        1.01899112011655       -0.03490322631180
C            9.49569181212099       -0.31897530148768        0.09307234605257
C           10.82380949905615       -0.61276956068860        0.24155493104327
C            8.32094017646603       -1.27062586070550        0.04306728619679
C            8.44154775028963       -2.22691018818323       -1.14871918350279
C            8.18982610246196       -2.05959069982423        1.35035094927070
C            7.16317543912191       -0.31106286731107       -0.13781720897257
C            5.83305450772093       -0.59340448659692       -0.25067742002025
C            4.88823619157413        0.45270089851607       -0.39632207564524
C            3.48185693900465        0.17672247870420       -0.50926726171775
C            3.01434062807621       -1.06616061319344       -1.00529085194394
C            1.68216189517373       -1.35269675157854       -1.12815901837760
C            0.73190829617799       -0.39424968337253       -0.73860874945792
C            1.18200536791064        0.85774627911310       -0.23502184123915
C            2.50977593624879        1.13891591471036       -0.12929879090203
C           -0.00211782183005        1.72778198010879        0.13192083287300
C           -0.01481252016838        3.02261942753257       -0.68791052661487
C           -0.00970803030459        2.04699383987276        1.63124134210742
C           -1.16420695350174        0.83088183164118       -0.24042664672487
C           -2.49916893951238        1.08206044694522       -0.14297610485109
C           -3.44452795096925        0.09477545187491       -0.52083681546565
C           -4.85943298027617        0.33919464837155       -0.41532058844646
C           -5.38237216096202        1.65034080244097       -0.49696920832449
C           -6.72720675588327        1.90887461355745       -0.40855081891204
C           -7.61490064729096        0.84787092374250       -0.21259756912495
C           -7.11184422332146       -0.47158557713259       -0.12161543692714
C           -5.77426035417875       -0.72426997769564       -0.22735495926762
C           -8.24366971779297       -1.45205760940982        0.10424417589175
C           -8.34148843638057       -2.45938214585498       -1.04649124310561
C           -8.08797410891404       -2.18279556601969        1.44250057187099
C           -9.44162385750366       -0.52875799681467        0.12856862478311
C          -10.76066233185567       -0.84901933148290        0.30610622388837
C          -11.72329265719115        0.17424382201149        0.29716471855939
N          -13.07040942190745       -0.13266935059841        0.48844618413269
C          -13.43919548800688       -1.15302372631192        1.37063583306701
C          -14.52618605431862       -1.98015464568320        1.08177809697885
C          -14.88742210979687       -2.98547245390417        1.95745370542914
C          -14.17139699458451       -3.18979993755627        3.12665663852210
C          -13.08961743949808       -2.37309385108481        3.41736876117226
C          -12.72508029952697       -1.35972150975996        2.55267679963667
C          -14.05833873262443        0.58368857218795       -0.19940983715274
C          -15.25562306754242        0.92159483045945        0.43008071140913
C          -16.22058573176420        1.62517035745319       -0.26536136608956
C          -16.00581982007657        2.00384228236423       -1.57897113590767
C          -14.81433352322482        1.67750181922880       -2.22140197326996
C          -14.59384516958761        2.07137370890924       -3.65067322475180
C          -13.85132862378384        0.96656605615574       -1.52491200064740
C          -11.32227402856276        1.50289370319302        0.09987650346764
C           -9.99602811199571        1.82681764146247       -0.08064375789720
C           -9.03831516441038        0.81187628751195       -0.06519538441524
C           -2.94874493021662       -1.13968052586419       -1.00605709863851
C           -1.60927982766561       -1.39456117010595       -1.12609402463931
C           -0.68377437097572       -0.41125802522488       -0.73969906098907
C            5.37981080677422        1.77996910925442       -0.42635853089335
C            6.71643454255699        2.06934979833746       -0.32541532152536
C            7.63300807910868        1.02436211915970       -0.17411018299333
C           13.18905407194237       -1.42262295024955       -1.44849774141137
H           12.84487385397394       -4.04723753679662       -3.32909911775980
H           13.98933990589046       -2.97445638419188       -4.12580864932939
H           12.36917347058733       -2.39018134177056       -3.72603502056179
H           15.10431035141556       -4.16568661570314       -1.86108804304109
H           15.94750366379961       -3.42142858111565        0.33023607983835
H           15.01882545349851       -1.40855778767924        1.40156074762422
H           15.61642632586671        0.80310896550684       -0.21194493231126
H           17.07569774133920        2.30485353230661        1.07715890599898
H           16.24211190828981        3.38072229373152        3.13891763335141
H           13.93685945793323        2.93158687615115        3.90657299960711
H           12.48040176578746        1.41709633020320        2.62843139003224
H           12.05669449563693        2.55448265905949        0.14069984998119
H            9.66740095465815        3.08439934440558       -0.11413604033381
H           11.16435679196788       -1.63160339778989        0.35341816638855
H            7.56213239711666       -2.86366081341683       -1.21060840229494
H            9.32190047967569       -2.85650626403393       -1.04093840787538
H            8.52618410047421       -1.66253671821343       -2.07557795398612
H            9.06287482372153       -2.69056320437644        1.50066372907136
H            7.30415784597140       -2.69006880885645        1.32210587697459
H            8.10187488229740       -1.37769966381064        2.19410242080772
H            5.48932075395178       -1.61498065074887       -0.18947696619141
H            3.73558819928109       -1.79807503277254       -1.33837000397826
H            1.35955684539397       -2.30315134575359       -1.52954048447931
H            2.83139206673141        2.08283699905876        0.28510468575394
H           -0.00906022142206        2.79368589157161       -1.75213639698699
H           -0.90597617440833        3.60411230051694       -0.46224332990780
H            0.86129670693456        3.62464739037280       -0.45729103779144
H           -0.00100390575197        1.12587866999859        2.21115126696158
H            0.86737913449559        2.63278238573332        1.89738209885882
H           -0.90091341724657        2.61326275599208        1.89269846729166
H           -2.84662851281987        2.01993222197276        0.26463487589614
H           -4.70433519907785        2.47161781752991       -0.67673511788084
H           -7.09599137616389        2.92132504784498       -0.49333553215228
H           -5.40240441956723       -1.73304453273128       -0.12768067088010
H           -7.44276010822821       -3.07031820508209       -1.08819957565487
H           -9.20043041959734       -3.11176915453925       -0.90675845739634
H           -8.44966156266472       -1.93698125487215       -1.99524614320661
H           -8.94554324485489       -2.82688442407026        1.62381606286954
H           -8.01217824678684       -1.46407125411170        2.25637997712580
H           -7.18786992038542       -2.79306508654371        1.43574641753316
H          -11.07594579747773       -1.87299222822777        0.44320186557145
H          -15.07827225109694       -1.83090490829537        0.16539009956147
H          -15.72898492599494       -3.61995048560480        1.72052752611984
H          -14.45433567986029       -3.97944130236893        3.80636029887600
H          -12.53008726942246       -2.52048562344648        4.32963055712593
H          -11.89046704967063       -0.71560028409130        2.78787489249451
H          -15.41832397793999        0.63757354759496        1.45922338910166
H          -17.14535957540850        1.88845519351880        0.22710926592125
H          -16.76510387348346        2.55642801982110       -2.11260945230874
H          -15.23853851110363        1.48353298887423       -4.30436554520284
H          -14.83973885939728        3.12140257181421       -3.79940791030026
H          -13.56095194791373        1.90603679672918       -3.94631316780279
H          -12.92486024311869        0.69428254101370       -2.01030472586128
H          -12.07223302982162        2.28068139112124        0.10645410226123
H           -9.70168009625192        2.85639672068310       -0.21959420929946
H           -3.65329240845731       -1.89034691777315       -1.33370325216277
H           -1.26299889985289       -2.33913811019961       -1.52148334157187
H            4.68266987561561        2.59114429122897       -0.57536603216744
H            7.05903780678981        3.09358169540903       -0.36940659285272
H           12.42164153351563       -0.84660635376925       -1.94576297628912
