133
 energy: -188.604789593993 gnorm: 0.000059102838 xtb: 6.7.1 (edcfbbe)
C           13.21649828617608       -3.29298473654008       -3.06820879356718
C           13.70638173009134       -2.73102578399799       -1.76799929167617
C           14.69548282786775       -3.39197485943061       -1.04426480776126
C           15.15858068736418       -2.86768743458020        0.14985374163484
C           14.64269653091714       -1.68540882347075        0.64598495968250
C           13.65508182471335       -1.00835455107120       -0.06850724017927
N           13.11754054734976        0.18915612593636        0.42003962047183
C           13.94490621924904        1.10735512908171        1.07409825035148
C           15.25535358593942        1.31444575088382        0.63969543983904
C           16.06903505038396        2.21996117063449        1.29220548796780
C           15.59304050633571        2.93543291917622        2.37991291163187
C           14.29166524382674        2.73562286990435        2.81365731307163
C           13.47140135943556        1.82876868559634        2.17154210712132
C           11.76035553659516        0.46076071122213        0.25087563754357
C           11.32475266349798        1.77077396178393        0.00509708996521
C            9.99014958876130        2.05464157341536       -0.17853099247943
C            9.05755926965609        1.01691048642818       -0.12088710244788
C            9.49576455013614       -0.30454890449470        0.12699554984479
C           10.82216503692274       -0.58380470967747        0.31406908828225
C            8.32151875662261       -1.25793665474685        0.14646803873694
C            8.45308270905778       -2.31034325402393       -0.96021328244209
C            8.17845447913339       -1.93556029856423        1.51342358139523
C            7.16526830819391       -0.31760970333514       -0.12322814153102
C            5.83553641838108       -0.60893444339372       -0.21704031332362
C            4.89127777644218        0.42078244157760       -0.45321752426587
C            3.48503097202668        0.13541538261194       -0.54518341115123
C            3.01948199566224       -1.14538725299968       -0.93503503807213
C            1.68770923894077       -1.44357793992315       -1.03255501399815
C            0.73598780576123       -0.45710328537167       -0.72525353835440
C            1.18407272595616        0.83353294319392       -0.32901609348696
C            2.51149579020912        1.12483024512842       -0.24787948488553
C           -0.00167769548686        1.72945929262418       -0.03702982896944
C           -0.01457720885242        2.95125941014864       -0.96211159356364
C           -0.01152866241174        2.17174052679779        1.43075979115329
C           -1.16242909548525        0.80322421782772       -0.33458582515187
C           -2.49784317059421        1.05988413643143       -0.26055783330438
C           -3.44176701761913        0.04315562901953       -0.55607082928799
C           -4.85689905655615        0.29203070474636       -0.46897128197828
C           -5.38361907510983        1.59221329986743       -0.64802416032814
C           -6.72828997145595        1.85471339866834       -0.57113667273937
C           -7.61310101904438        0.81010296025951       -0.29101015670825
C           -7.10688556415260       -0.49856707265070       -0.10728853740531
C           -5.76939728955302       -0.75613446610811       -0.19946560091601
C           -8.23536460040058       -1.46141353957391        0.19825298620410
C           -8.34068179084717       -2.55305725578022       -0.87208331776582
C           -8.06769729893602       -2.08993074399308        1.58626252410608
C           -9.43465016286059       -0.54007878926467        0.16460522205986
C          -10.75164823729454       -0.84818263691877        0.37529560979945
C          -11.71581198520547        0.17147396895042        0.30548381531789
N          -13.06055998966276       -0.12290829122631        0.52804053564143
C          -13.42136919706855       -1.08976772703006        1.47204631741094
C          -14.50844083054216       -1.93431115955253        1.23962276937667
C          -14.86332150348635       -2.88535629271641        2.17643513232552
C          -14.14070077726326       -3.01759649268832        3.35195195345956
C          -13.05838909759427       -2.18371476929677        3.58657518773978
C          -12.70009039121060       -1.22410014634364        2.66007431924115
C          -14.05657618206091        0.55369634207197       -0.18804762583389
C          -15.24600514875083        0.92787965874519        0.43581629391743
C          -16.21899461299147        1.59237362820877       -0.28639930973651
C          -16.01977638763272        1.89679448695691       -1.62163911117607
C          -14.83609848435335        1.53395873429866       -2.25877932446004
C          -14.63086609617350        1.85010424420824       -3.70936631539942
C          -13.86591603608255        0.86042258146299       -1.53558697427134
C          -11.31743825323996        1.48427346723866        0.01640658921684
C           -9.99370382681723        1.79513224581932       -0.20117315744200
C           -9.03470475998174        0.78378473966222       -0.12721147505618
C           -2.94321362201059       -1.22645426589686       -0.93726144636736
C           -1.60331277805621       -1.48893337921613       -1.03231751211798
C           -0.67961002419563       -0.47588426432726       -0.72681124420788
C            5.38301688827634        1.74102881991738       -0.59174626134635
C            6.71939167280194        2.03830381675446       -0.51052130432571
C            7.63547909797951        1.01009782222615       -0.26912789399092
C           13.19990345796602       -1.53996773199945       -1.27576493464619
H           13.98540211820877       -3.18986502689958       -3.83409409897547
H           12.32292111120782       -2.77397698113828       -3.40564838283888
H           12.99130860380658       -4.35302089230756       -2.96480577747434
H           15.10122253307098       -4.31966279451507       -1.42036293466287
H           15.92215907239260       -3.39023112852578        0.70754611455133
H           14.99261468933679       -1.28597955339099        1.58635805755703
H           15.62448185868748        0.76584493767360       -0.21449033898075
H           17.08001100810239        2.37368939301076        0.94409345324213
H           16.23167807701282        3.64353763150322        2.88608961645220
H           13.91458133052117        3.28406959776915        3.66453557804924
H           12.46128908407877        1.66509579203451        2.51768878785293
H           12.05822000660702        2.56191771754276       -0.05610953977148
H            9.67179408689407        3.06689587618444       -0.37854052506382
H           11.16084362760676       -1.58888152137648        0.51807061002400
H            7.57249759259637       -2.94819240619933       -0.97917523854339
H            9.33018326800237       -2.93054695423373       -0.78951102963675
H            8.55044977566293       -1.82585348851307       -1.93005679744567
H            9.04914223629636       -2.55272476344761        1.72302375376921
H            7.29192173825894       -2.56519906256776        1.53043338778008
H            8.08484850969546       -1.18547960140910        2.29651177759111
H            5.49187988504299       -1.62191312368397       -0.07119573184857
H            3.74180303790897       -1.90167599053731       -1.20541207052874
H            1.36671667148941       -2.42529641198146       -1.35158369632481
H            2.83165479578680        2.10112028057254        0.08458564978349
H           -0.00732798801946        2.63393767693714       -2.00343481754116
H           -0.90647238024321        3.54876146709053       -0.78701175303345
H            0.86076062477453        3.57127238847681       -0.78164386541569
H           -0.00178473965841        1.30174871554762        2.08491736761528
H            0.86418863920939        2.77920837266264        1.64845850986076
H           -0.90418712754199        2.75581628144327        1.64362101271192
H           -2.84698800654259        2.02830188810723        0.06617887297643
H           -4.70853165667921        2.39896502570198       -0.89289846131796
H           -7.09947920672911        2.85738998272898       -0.72961319676724
H           -5.39572131700415       -1.75412903500802       -0.02589226802707
H           -7.43800954648886       -3.15953199831597       -0.87995767564568
H           -9.19274717364574       -3.19851787379409       -0.67127721791796
H           -8.46590720926975       -2.10552530959526       -1.85627084699010
H           -8.92151026411515       -2.72146431180531        1.82158507295532
H           -7.98884988992390       -1.31220203737691        2.34362447123972
H           -7.16533451770087       -2.69600557451634        1.61848894092390
H          -11.06404470185722       -1.86069538834944        0.58472012799368
H          -15.06580513099195       -1.84134515419170        0.31901300199342
H          -15.70505507831651       -3.53414296368979        1.98279987530893
H          -14.41914940726571       -3.76445384237414        4.08013694294597
H          -12.49351852553756       -2.27481196928447        4.50287158969256
H          -11.86519661081040       -0.56593243408442        2.85133758384513
H          -15.39624075515061        0.70266548877210        1.48125777030914
H          -17.13772708097596        1.88379917894770        0.20150989489671
H          -16.78489934758553        2.42000732211140       -2.17613513611217
H          -14.88354107846669        2.88933638319413       -3.91239992280953
H          -13.59980799659235        1.67388319197539       -4.00519662893758
H          -15.27832716680376        1.22466277558786       -4.32427694143955
H          -12.94585720789758        0.55985827150025       -2.01642012662173
H          -12.06747642608539        2.26115263887492       -0.01998879586666
H           -9.70180161848758        2.81294561673885       -0.41290123558651
H           -3.64579261653944       -2.00269074836507       -1.20367683930258
H           -1.25527082328464       -2.46282586708515       -1.34684079414331
H            4.68638845162440        2.53688505611037       -0.80995633394618
H            7.06183126112932        3.05558574778716       -0.63787343395033
H           12.44269033500161       -1.00557779928747       -1.83173056117918
