  133
       -188.52942471
 C         13.1352554971       -3.0710589163       -3.3697791686
 C         13.6422154284       -2.6190838407       -2.0340265993
 C         14.6250235628       -3.3506154953       -1.3730634797
 C         15.1043740842       -2.9288480180       -0.1457295408
 C         14.6118474942       -1.7810012799        0.4448694255
 C         13.6290220051       -1.0355068625       -0.2046294564
 N         13.1123195808        0.1254318460        0.3808333456
 C         13.9537509225        0.9760568801        1.1017827188
 C         15.2692932158        1.1888251495        0.6864631673
 C         16.0974293274        2.0292366160        1.4037094896
 C         15.6313159635        2.6746685653        2.5379732291
 C         14.3253030511        2.4690527048        2.9533683970
 C         13.4906528358        1.6259231213        2.2470790198
 C         11.7559156308        0.4231564270        0.2477366076
 C         11.3314377862        1.7522923020        0.1154887849
 C          9.9975011240        2.0632203487       -0.0239681824
 C          9.0555005674        1.0332249445       -0.0394675719
 C          9.4841327885       -0.3075839162        0.0899546576
 C         10.8091798632       -0.6145642015        0.2356183732
 C          8.3021548664       -1.2489185295        0.0421079164
 C          8.4122746155       -2.2000880681       -1.1538481846
 C          8.1697137804       -2.0420845616        1.3453241411
 C          7.1518954627       -0.2805518199       -0.1328079912
 C          5.8204610256       -0.5541933033       -0.2426481599
 C          4.8843234151        0.4995695591       -0.3852139668
 C          3.4778210660        0.2320167849       -0.5014262172
 C          3.0092237331       -1.0069319082       -1.0069932290
 C          1.6775764278       -1.2892763246       -1.1347951239
 C          0.7301301622       -0.3306447186       -0.7384531546
 C          1.1819406480        0.9173924411       -0.2257488447
 C          2.5094631766        1.1960324341       -0.1172323136
 C         -0.0016116786        1.7846427969        0.1470000305
 C         -0.0156214280        3.0814669894       -0.6679594752
 C         -0.0067699889        2.0973218255        1.6466629243
 C         -1.1643965224        0.8904068903       -0.2271392470
 C         -2.4983922185        1.1382791839       -0.1199715730
 C         -3.4424884910        0.1500925683       -0.5003534968
 C         -4.8557926067        0.3843131392       -0.3815104812
 C         -5.3881325155        1.6937623726       -0.4305331426
 C         -6.7336955650        1.9409922316       -0.3315617958
 C         -7.6137241487        0.8693874901       -0.1594551298
 C         -7.1002544993       -0.4478971418       -0.0995848614
 C         -5.7626439864       -0.6899613649       -0.2141216134
 C         -8.2240229408       -1.4413402021        0.1035831097
 C         -8.3073126525       -2.4318459936       -1.0612781328
 C         -8.0696670366       -2.1896773372        1.4315069886
 C         -9.4296096171       -0.5299255697        0.1385449960
 C        -10.7464105157       -0.8678898749        0.2936752860
 C        -11.7175686214        0.1465008023        0.3039022085
 N        -13.0636174626       -0.1805126350        0.4716816757
 C        -13.4240830246       -1.2324169037        1.3178501834
 C        -14.4934799253       -2.0687235821        0.9935003442
 C        -14.8433247641       -3.1076044951        1.8332582828
 C        -14.1342668819       -3.3357577606        3.0018319521
 C        -13.0700298786       -2.5100044533        3.3277114056
 C        -12.7158643790       -1.4645399437        2.4983750164
 C        -14.0525331466        0.5432177762       -0.2023701502
 C        -15.2709234996        0.8228647832        0.4150470034
 C        -16.2358041190        1.5401544480       -0.2652854085
 C        -16.0011088353        1.9913584204       -1.5519431840
 C        -14.7891065721        1.7235348964       -2.1816700899
 C        -14.5445227587        2.1986846599       -3.5815581546
 C        -13.8266206185        0.9970097871       -1.5021060700
 C        -11.3272205259        1.4836992527        0.1515948651
 C        -10.0028829027        1.8247670542       -0.0090357478
 C         -9.0361871214        0.8184453741       -0.0164676637
 C         -2.9462422289       -1.0785744224       -1.0024091009
 C         -1.6080855347       -1.3291673379       -1.1317785752
 C         -0.6837384860       -0.3472370550       -0.7383415559
 C          5.3843257200        1.8232982267       -0.4117927585
 C          6.7232025669        2.1027460604       -0.3149239055
 C          7.6321320143        1.0506314518       -0.1709096540
 C         13.1562542203       -1.4645563459       -1.4454249046
 H         12.8210673622       -4.1126333463       -3.3253325904
 H         13.9246280292       -2.9945358898       -4.1170735107
 H         12.2932918292       -2.4644506240       -3.6934296158
 H         15.0121246636       -4.2520691339       -1.8242864179
 H         15.8628860948       -3.5050991415        0.3630241773
 H         14.9756162916       -1.4609530605        1.4098349899
 H         15.6302856943        0.6962432824       -0.2044485500
 H         17.1121024990        2.1878899002        1.0697408362
 H         16.2809620826        3.3328634777        3.0941097473
 H         13.9556391670        2.9627719221        3.8398493893
 H         12.4769196453        1.4563031821        2.5787970313
 H         12.0732258284        2.5378027912        0.1094798985
 H          9.6873237068        3.0913299708       -0.1340803374
 H         11.1402212402       -1.6362030312        0.3505682469
 H          7.5295583262       -2.8320459839       -1.2157257264
 H          9.2900291565       -2.8347570787       -1.0533676960
 H          8.4968342628       -1.6316738730       -2.0777946747
 H          9.0360580588       -2.6840753392        1.4880390029
 H          7.2766345273       -2.6619038426        1.3203582339
 H          8.0958733647       -1.3627913418        2.1918699625
 H          5.4702213237       -1.5730616278       -0.1802253743
 H          3.7305418904       -1.7359934770       -1.3444585995
 H          1.3520732948       -2.2348056435       -1.5436547278
 H          2.8340175377        2.1352946619        0.3038360051
 H         -0.0090914466        2.8555262602       -1.7321945662
 H         -0.9075932310        3.6610935968       -0.4412505700
 H          0.8594977014        3.6838587836       -0.4352600154
 H          0.0011187702        1.1738571214        2.2217425697
 H          0.8712588240        2.6804847488        1.9147058569
 H         -0.8966437307        2.6635834792        1.9118904566
 H         -2.8462143097        2.0711475574        0.2974163392
 H         -4.7165933884        2.5230761764       -0.5939664569
 H         -7.1109999498        2.9516752138       -0.3916844416
 H         -5.3853516243       -1.6981174757       -0.1366133561
 H         -7.4013886272       -3.0311874385       -1.1112956557
 H         -9.1583762990       -3.0970154158       -0.9334544646
 H         -8.4211853235       -1.8965012079       -2.0015870346
 H         -8.9240716281       -2.8416198996        1.6001900357
 H         -8.0036732369       -1.4815669537        2.2549526833
 H         -7.1654571779       -2.7936581200        1.4215297674
 H        -11.0535213348       -1.8981333883        0.3987344692
 H        -15.0390051690       -1.9004228676        0.0765878729
 H        -15.6703781488       -3.7496657512        1.5686294522
 H        -14.4089469424       -4.1507264061        3.6537478346
 H        -12.5157234465       -2.6763245342        4.2395999779
 H        -11.8936215058       -0.8146570006        2.7591772177
 H        -15.4489220100        0.4846124246        1.4248649621
 H        -17.1765535658        1.7575214870        0.2184372988
 H        -16.7594884926        2.5558490848       -2.0738463988
 H        -15.1648626530        1.6391799736       -4.2814711003
 H        -14.8032313407        3.2515452405       -3.6776156146
 H        -13.5030182764        2.0654803067       -3.8624112522
 H        -12.8849579736        0.7691365804       -1.9806830429
 H        -12.0851155996        2.2532169211        0.1756686964
 H         -9.7170858492        2.8602950006       -0.1157348425
 H         -3.6512140640       -1.8256950319       -1.3354826492
 H         -1.2604524986       -2.2680811003       -1.5379879831
 H          4.6919142673        2.6387691652       -0.5558968312
 H          7.0744403059        3.1236805317       -0.3574463198
 H         12.4021193710       -0.8781201823       -1.9503393040
