133
 energy: -188.684341997022 gnorm: 0.000040029871 xtb: 6.7.1 (edcfbbe)
C           10.71681146726634       -5.19139842215367       -0.84954123560588
C           11.63555511990029       -4.31030545696958       -0.05714720757227
C           12.46597209152453       -4.85752455627779        0.91667943109011
C           13.32118569440245       -4.04663342343155        1.64123019972552
C           13.35895055259174       -2.68334772148945        1.41536867755009
C           12.53866457524316       -2.11966249525859        0.43996342087426
N           12.56162915562621       -0.73906414933617        0.19898049541401
C           13.77110860995869       -0.03861889493306        0.25832262301350
C           14.95172568462985       -0.62191205363049       -0.20310029986138
C           16.14455623573411        0.07187029921571       -0.13622125441676
C           16.18206233467471        1.35715964433398        0.38039871200417
C           15.01187488750518        1.94359240184245        0.83549198229940
C           13.81596323220016        1.25428560471494        0.78149600989950
C           11.37234333322466       -0.06686288821224       -0.10381161848698
C           11.36781839192495        0.97313135426476       -1.03674382407876
C           10.20052757519363        1.64273428506132       -1.35167424052198
C            9.01740399293933        1.26050922293903       -0.73808523547245
C            9.01566711640416        0.21282811295412        0.19660777637260
C           10.17841440442878       -0.44284016498014        0.52195864784195
C            7.61984892380174       -0.03198664833571        0.72579087173606
C            7.14503255762721       -1.44781867474110        0.38029797522238
C            7.54831178412607        0.20120480802110        2.23844936678911
C            6.82489203937833        1.01137116894232       -0.02945451761020
C            5.47607689281525        1.27257795578479        0.02885224676550
C            4.93581177207242        2.29357011970240       -0.75922729408138
C            3.49485214389098        2.57922061385878       -0.71561315477399
C            3.03233588455100        3.89586866066965       -0.70861080919805
C            1.68017783989155        4.18523597679181       -0.67436305458109
C            0.77247211569262        3.13807028553894       -0.65312203798702
C            1.22538878559017        1.80968110950975       -0.65920658243194
C            2.57166641375091        1.52963324757773       -0.68588501586901
C            0.05902734803829        0.84564933929246       -0.64249443580359
C            0.08189775322675       -0.03121269414731        0.61427752464151
C            0.04551666742117       -0.02693991921027       -1.90246276260535
C           -1.11766915920493        1.79700518855073       -0.62532593943118
C           -2.46104629444012        1.50239715177101       -0.61320993740016
C           -3.39587261153553        2.54198871824039       -0.61736512786980
C           -4.83414392824726        2.23973055787309       -0.62380191952007
C           -5.70410088885846        2.96279923149777       -1.44074467640219
C           -7.05833497245414        2.68363720116430       -1.47782910548298
C           -7.55362261249995        1.66607599260638       -0.67746379729932
C           -6.68921212053906        0.93679390884757        0.15433714182511
C           -5.34282596102768        1.21533032940633        0.18058135720131
C           -7.45325722206899       -0.11346912872507        0.93157967271470
C           -6.95327072406535       -1.52290424463635        0.59798440608484
C           -7.36778114067402        0.14046889658283        2.44067723222150
C           -8.86246193119657        0.10509609420486        0.42675606024449
C          -10.00743124894514       -0.57193626764582        0.77160025093562
C          -11.22254630676545       -0.20066728109907        0.18532350594894
N          -12.40027293109554       -0.87295966987987        0.53170051675535
C          -12.61118013022080       -1.27913681198589        1.85333835525238
C          -13.26605069321483       -2.47994477042370        2.13007575514950
C          -13.47905607294381       -2.87334383754696        3.43716560996849
C          -13.03543939207656       -2.08774325246535        4.48893999449080
C          -12.37832740157562       -0.89755067094800        4.22054024068812
C          -12.17004381983707       -0.49038563989491        2.91702970862236
C          -13.37203977356855       -1.12962260472547       -0.44519283036508
C          -14.72836545857188       -1.03281371867405       -0.14044742381368
C          -15.67231982174424       -1.29476942575109       -1.11572017800887
C          -15.28325897656103       -1.64218585389751       -2.39696992314644
C          -13.93271834578097       -1.73776419024426       -2.72010750285757
C          -13.51415509792166       -2.11004312656009       -4.11091927927193
C          -12.98926693612276       -1.48599549880620       -1.73802932200950
C          -11.25416876479271        0.84194771763460       -0.74403514537431
C          -10.10047288790563        1.51520065736293       -1.09847402188780
C           -8.89927746412680        1.15040402377504       -0.50987271961422
C           -2.94781203901624        3.86355989996510       -0.62362691102215
C           -1.59840409001686        4.16754281711716       -0.62717724672920
C           -0.67920788531794        3.13023331641351       -0.63208762023763
C            5.77762134524385        3.03088960672493       -1.59282386686556
C            7.13439795972515        2.77051312154414       -1.66071345633402
C            7.66107106621131        1.75652430975376       -0.87600651081866
C           11.68621330856089       -2.94631913849914       -0.29164922160628
H           10.03007760054921       -4.59940047654922       -1.44934741522771
H           10.14111310443505       -5.83541979542266       -0.18665330728440
H           11.29384089552414       -5.83239589531947       -1.51626926280685
H           12.43886752998857       -5.92080614799484        1.10583998262829
H           13.95916136599052       -4.47745909114919        2.39962404431333
H           14.01760415111092       -2.05079379497588        1.99225769517698
H           14.92466405908305       -1.62035356607367       -0.61513896373167
H           17.05060040676828       -0.39185092807573       -0.49893908433270
H           17.11565924274664        1.89749789164221        0.42777824059769
H           15.03131178060335        2.94338481293880        1.24498399406639
H           12.90705649923914        1.71077888704317        1.14607760141946
H           12.29447758703419        1.24862830231882       -1.51932411783205
H           10.21494419317680        2.44327481665047       -2.07661155903106
H           10.18704484116987       -1.24191582792062        1.24863552332840
H            6.12045134100887       -1.59341442907184        0.71420059010211
H            7.77890285936234       -2.18645215615434        0.86553425038869
H            7.18638094949567       -1.60610521749033       -0.69579610774414
H            8.17643072890269       -0.51698061052753        2.76035918401893
H            6.52499295977335        0.09004345447692        2.58920048655759
H            7.89146664209857        1.20503875362238        2.48155120466777
H            4.83221570239261        0.71255038434498        0.69150345520416
H            3.74940155295632        4.70452020657300       -0.71027955633683
H            1.34154623571143        5.21121331897673       -0.66397673438468
H            2.92410090893165        0.50864174998508       -0.71057337321915
H            0.09213239422438        0.59043595897545        1.50775320172693
H           -0.79817042419174       -0.66936623789387        0.64443631205541
H            0.96859425496178       -0.66081248534754        0.61826150906943
H            0.02832364876808        0.59794597147185       -2.79348627651043
H            0.93288448319672       -0.65472187616518       -1.93622505640720
H           -0.83468774798049       -0.66559993935301       -1.90978332062563
H           -2.80318291087297        0.47768541415946       -0.62724957623327
H           -5.30384535733361        3.74125504135349       -2.07470281404992
H           -7.71488415700775        3.24845435306720       -2.12369363095583
H           -4.67662262003337        0.66681200584255        0.83068843082618
H           -5.92059631277603       -1.64129038950944        0.91740969029301
H           -7.56203099928030       -2.26856522687506        1.10397526919120
H           -7.00841844612403       -1.69775832167454       -0.47487350725112
H           -7.97963914931485       -0.57992582890541        2.97892890377799
H           -7.72299474630335        1.14233176809758        2.67462809940737
H           -6.33891981049979        0.04913233137754        2.78076910019232
H           -9.98631607164573       -1.38391953664106        1.48378331821841
H          -13.60453083692341       -3.10020674508450        1.31276924794462
H          -13.98757751750980       -3.80592672758579        3.63542329590467
H          -13.20033611754746       -2.40042057040330        5.50920708305779
H          -12.03318428687922       -0.27488178947595        5.03346337851729
H          -11.66773681835071        0.44409067744502        2.71249069513084
H          -15.03456468980429       -0.75076581453202        0.85627745888422
H          -16.72260875184209       -1.21742897412979       -0.87354966096428
H          -16.02845401830803       -1.84050720433616       -3.15349129560680
H          -14.00893979398159       -3.02778323758449       -4.42543874162124
H          -13.79767851771862       -1.32360417783809       -4.81036421102015
H          -12.43810873330559       -2.25271487760050       -4.16952567634481
H          -11.93647656766519       -1.56600192320709       -1.96984562552628
H          -12.19998313877511        1.12269319323462       -1.18448796561383
H          -10.14311443198656        2.32164811579634       -1.81565078417620
H           -3.67345585548583        4.66435681581902       -0.60598620561510
H           -1.27065427937865        5.19710128686230       -0.62644315779017
H            5.35320925475338        3.80622517451385       -2.21478452700560
H            7.76889409776829        3.34707513262616       -2.31818925606828
H           11.05592388491541       -2.50791865555074       -1.05256598054535
