  70
       -112.04995858
 C         -7.6060678791        0.2318813104       -1.2422806467
 C         -6.7230717910       -0.0076609693       -0.0026783007
 C         -7.6029607816       -0.2556107504        1.2376144991
 C         -5.8708843572       -1.2351679858       -0.2483743974
 C         -6.4810394881       -2.4575309367       -0.4943302307
 C         -5.7490329553       -3.6036753456       -0.7438954302
 C         -4.3646073493       -3.5387258020       -0.7632871802
 C         -3.7307150342       -2.3407638147       -0.5217320263
 C         -4.4693348060       -1.1809889965       -0.2486352222
 N         -3.8089957909        0.0057231740        0.0017172816
 C         -2.3852180741        0.0109021768        0.0043073537
 C         -1.6935172457        0.5166545491       -1.0884336834
 C         -0.3128736869        0.5213583464       -1.0830867277
 C          0.3849797409        0.0107452572        0.0053619390
 C          1.8612196753        0.0064704863        0.0039804843
 C          2.5454287403        1.2224712249       -0.0501854438
 C          1.7912586367        2.3935978047       -0.0018020014
 N          1.0947726233        3.3127513071        0.0661969739
 C          3.9946066242        1.1698747547       -0.0799877716
 C          4.8463216282        2.3277684375       -0.1878497914
 C          4.4287873251        3.6103325612       -0.5748322003
 C          5.3489694773        4.6366357957       -0.6503857419
 C          6.6781345526        4.3728549174       -0.3448670260
 N          7.0775434725        3.1627017790        0.0138807599
 C          6.2210737039        2.1833037783        0.0930649121
 N          4.5835084242       -0.0026939826        0.0018185001
 C          3.9869489103       -1.1715619066        0.0834409838
 C          4.8310219605       -2.3352352490        0.1881555231
 C          4.4046790871       -3.6172479551        0.5675846414
 C          5.3182189841       -4.6498280928        0.6391751410
 C          6.6496901625       -4.3930030563        0.3374043814
 N          7.0575029663       -3.1833933575       -0.0135841497
 C          6.2073325188       -2.1980451826       -0.0889021640
 C          2.5374159731       -1.2141596631        0.0560465845
 C          1.7748541390       -2.3796767488        0.0073534020
 N          1.0697985702       -3.2920274045       -0.0608893610
 C         -0.3137124205       -0.4975691330        1.0943380160
 C         -1.6943291444       -0.4926761771        1.0986031996
 C         -4.4808980549        1.1866362733        0.2478037023
 C         -3.7536685493        2.3534298270        0.5211404657
 C         -4.3990647906        3.5460144406        0.7588706740
 C         -5.7838861246        3.5983088981        0.7356398286
 C         -6.5047417688        2.4451612808        0.4857838273
 C         -5.8828103891        1.2281417410        0.2431221807
 H         -8.2391741184       -0.6285853041       -1.4384474646
 H         -6.9799209111        0.4042525114       -2.1156247879
 H         -8.2445447743        1.0991043961       -1.1010871907
 H         -8.2328541099       -1.1293395819        1.0969619187
 H         -8.2443339314        0.5985420664        1.4340413897
 H         -6.9743806001       -0.4216840415        2.1104749364
 H         -7.5582819212       -2.5232540037       -0.4938285100
 H         -6.2554985739       -4.5383381843       -0.9286395948
 H         -3.7769805995       -4.4200434308       -0.9678317489
 H         -2.6534668681       -2.2969130364       -0.5457991750
 H         -2.2408492694        0.9056660982       -1.9337992038
 H          0.2273999993        0.9119256439       -1.9322503249
 H          3.3967842126        3.7987416273       -0.8246699326
 H          5.0446514205        5.6283095976       -0.9470617482
 H          7.4401990514        5.1371635495       -0.3880095061
 H          6.5985289295        1.2166285115        0.3988606867
 H          3.3709806694       -3.8006310418        0.8144143021
 H          5.0069968090       -5.6410914980        0.9300290683
 H          7.4069297985       -5.1624179792        0.3777981457
 H          6.5910864725       -1.2324241974       -0.3902745838
 H          0.2258389547       -0.8882972744        1.9439197404
 H         -2.2424074355       -0.8824110998        1.9431901908
 H         -2.6762194150        2.3189362244        0.5482346253
 H         -3.8203881673        4.4331283041        0.9635809217
 H         -6.2992888490        4.5286465399        0.9174992800
 H         -7.5825583516        2.5011351092        0.4817901711
  70
       -112.04967078
 C         -7.6112387310        0.1975586992       -1.2444512756
 C         -6.7233607494       -0.0310533591       -0.0064894627
 C         -7.5975360385       -0.2891835305        1.2352839273
 C         -5.8568722260       -1.2490893940       -0.2490387028
 C         -6.4511520018       -2.4782845122       -0.4975395280
 C         -5.7041281181       -3.6182652102       -0.7300488598
 C         -4.3204067206       -3.5421802923       -0.7205705739
 C         -3.7018381757       -2.3369921066       -0.4767870120
 C         -4.4562202064       -1.1810632587       -0.2336322405
 N         -3.8112135442        0.0147219913        0.0080743139
 C         -2.3863749925        0.0333139180        0.0153435223
 C         -1.6950645621        0.4275164713       -1.1220400752
 C         -0.3141233507        0.4333257653       -1.1161323465
 C          0.3818376515        0.0367461741        0.0193028894
 C          1.8595893030        0.0240991702        0.0153017287
 C          2.5501329377        1.2339944336       -0.0721476404
 C          1.7922569427        2.4012942599       -0.1435845300
 N          1.0823453640        3.3105271835       -0.2037394799
 C          3.9993164537        1.1731096111       -0.0729279227
 C          4.8652237687        2.3224705752       -0.1602843968
 C          4.4721986514        3.6563537732        0.0257557407
 C          5.4054984244        4.6673976327       -0.0830969171
 C          6.7234602677        4.3386272625       -0.3715279966
 N          7.1003494084        3.0813694381       -0.5407540308
 C          6.2309599380        2.1151245565       -0.4434536089
 N          4.5775697731       -0.0052676504        0.0002925584
 C          3.9751349623       -1.1712637232        0.0797176570
 C          4.8176784084       -2.3386172356        0.1554398551
 C          4.3944506049       -3.6644314252       -0.0207806821
 C          5.3095206508       -4.6938736446        0.0721338186
 C          6.6392613175       -4.3917468860        0.3349728449
 N          7.0440230093       -3.1422001203        0.4976362353
 C          6.1922323618       -2.1591015224        0.4161187107
 C          2.5250975471       -1.2007797051        0.0949087789
 C          1.7427457369       -2.3516105927        0.1655444027
 N          1.0126851496       -3.2435587755        0.2357188959
 C         -0.3165018924       -0.3546334753        1.1552724266
 C         -1.6973844133       -0.3523008094        1.1570870888
 C         -4.4957410686        1.1904801799        0.2357647949
 C         -3.7798938137        2.3701511451        0.4805541679
 C         -4.4380105626        3.5572947011        0.7090875931
 C         -5.8235397973        3.5906858345        0.7029331610
 C         -6.5326289874        2.4267467379        0.4703725350
 C         -5.8979633987        1.2152828747        0.2349030297
 H         -8.2293336679       -0.6726806614       -1.4434168628
 H         -6.9896354706        0.3846289384       -2.1176985753
 H         -8.2648929148        1.0524601205       -1.0990910926
 H         -8.2156924626       -1.1710464886        1.0958517335
 H         -8.2496697118        0.5567069583        1.4315298531
 H         -6.9660180471       -0.4464544044        2.1075204554
 H         -7.5273738758       -2.5549826582       -0.5124916151
 H         -6.1987311498       -4.5583388147       -0.9183876108
 H         -3.7215954469       -4.4211343415       -0.9008262005
 H         -2.6248720307       -2.2842775730       -0.4723688547
 H         -2.2420133590        0.7277838478       -2.0028697387
 H          0.2275103696        0.7374051135       -1.9990716414
 H          3.4477091852        3.8978944575        0.2587818357
 H          5.1189550898        5.6986248488        0.0523635739
 H          7.4939363356        5.0889628328       -0.4690889636
 H          6.5891112744        1.1073117475       -0.6043975029
 H          3.3625252870       -3.8855711933       -0.2402237765
 H          5.0004706595       -5.7186396640       -0.0606644253
 H          7.3970770278       -5.1569229198        0.4177541493
 H          6.5733336693       -1.1581524943        0.5663801893
 H          0.2232499527       -0.6579289352        2.0395795278
 H         -2.2466246160       -0.6562483078        2.0353187516
 H         -2.7017214630        2.3485751598        0.4894143072
 H         -3.8692500878        4.4552133103        0.8928595978
 H         -6.3488568530        4.5157963083        0.8819147643
 H         -7.6108342903        2.4697006499        0.4756081272
  70
       -112.04927192
 C         -7.5999074296       -0.1511337975       -1.2333560206
 C         -6.7036580263       -0.1820854169        0.0193181389
 C         -7.5653837529       -0.3497155854        1.2854376034
 C         -5.7637693343       -1.3653210706       -0.0855379211
 C         -6.2814654406       -2.6498623214       -0.1792758813
 C         -5.4652883995       -3.7625636677       -0.2693884329
 C         -4.0883533779       -3.6027774923       -0.2614685423
 C         -3.5445730255       -2.3414135930       -0.1692566576
 C         -4.3695939810       -1.2108794644       -0.0861516080
 N         -3.8002736527        0.0437377257        0.0005613360
 C         -2.3784317992        0.1437709819       -0.0021125956
 C         -1.6912590910        0.1649660652       -1.2078754401
 C         -0.3106460026        0.2001686269       -1.2074671272
 C          0.3859174418        0.2164131547       -0.0062291024
 C          1.8655198569        0.1612926395       -0.0073933955
 C          2.6109003225        1.3379259731        0.0134694246
 C          1.8989370960        2.5348495888        0.0725249811
 N          1.2128461576        3.4618357469        0.1322000868
 C          4.0558743779        1.2063600656       -0.0038289817
 C          4.9735232898        2.3174240155       -0.0089053556
 C          4.6290880404        3.6562141715       -0.2509256510
 C          5.6086601367        4.6289554892       -0.2361887689
 C          6.9233328348        4.2573018270        0.0154782061
 N          7.2534157606        2.9950441077        0.2407481947
 C          6.3403686047        2.0649273721        0.2330527598
 N          4.5765506455       -0.0016213036       -0.0091348149
 C          3.9169344613       -1.1389985492       -0.0122104193
 C          4.6927040628       -2.3537900298       -0.0063155187
 C          4.1861466080       -3.6367321732        0.2518206083
 C          5.0357960476       -4.7247018421        0.2354655219
 C          6.3833727165       -4.5219167664       -0.0336557219
 N          6.8667790227       -3.3127297428       -0.2732404041
 C          6.0771054863       -2.2752899713       -0.2641891744
 C          2.4682557251       -1.0975415534       -0.0279283267
 C          1.6163069605       -2.1991329148       -0.0836745527
 N          0.8204380139       -3.0347721182       -0.1386488275
 C         -0.3077809565        0.2269900859        1.1966393337
 C         -1.6884366994        0.1902827134        1.2012238712
 C         -4.5552337928        1.1932936430        0.0959792191
 C         -3.9116636989        2.4361912164        0.1712601500
 C         -4.6403769331        3.5998841983        0.2710826797
 C         -6.0254412477        3.5467746580        0.2949675121
 C         -6.6631826436        2.3223352110        0.2135370445
 C         -5.9564983995        1.1320947574        0.1121173684
 H         -8.1665880588       -1.0730849174       -1.3261844992
 H         -6.9871164139       -0.0328611616       -2.1249610869
 H         -8.3016821101        0.6766204050       -1.1868171328
 H         -6.9284305255       -0.3691491891        2.1676502199
 H         -8.1295979815       -1.2771113004        1.2493087267
 H         -8.2677604964        0.4725703881        1.3870352317
 H         -7.3511727540       -2.7929185204       -0.1825107817
 H         -5.9012719017       -4.7468974412       -0.3426284148
 H         -3.4357593900       -4.4592569633       -0.3260284533
 H         -2.4723540352       -2.2267260046       -0.1591298983
 H         -2.2406928911        0.1366873878       -2.1368482724
 H          0.2306152628        0.2006760404       -2.1418290486
 H          3.6067887716        3.9300927269       -0.4583999932
 H          5.3611950310        5.6625146133       -0.4221949163
 H          7.7298300493        4.9756256958        0.0364745070
 H          6.6617968592        1.0515889618        0.4334524636
 H          3.1402646977       -3.7783731633        0.4735498657
 H          4.6626283839       -5.7176989218        0.4328855186
 H          7.0928483408       -5.3361147968       -0.0583654307
 H          6.5213325311       -1.3116185496       -0.4751022419
 H          0.2357738890        0.2492693703        2.1293815168
 H         -2.2355185881        0.1831732048        2.1319921506
 H         -2.8340948924        2.4801628333        0.1490815025
 H         -4.1277061215        4.5473957093        0.3293076024
 H         -6.6057364518        4.4530181607        0.3741062486
 H         -7.7420568353        2.3003381359        0.2299400657
  70
       -112.04737921
 C         -6.5650933480        0.8057980614       -1.8350430944
 C         -6.6270020460        0.1585353618       -0.4315190285
 C         -8.0965745082       -0.0476186615       -0.0549197657
 C         -5.8683366801       -1.1508366226       -0.5209800907
 C         -6.4819549829       -2.3479615595       -0.8545809176
 C         -5.7516562859       -3.5057064471       -1.0655057928
 C         -4.3708059888       -3.4777934887       -0.9634228688
 C         -3.7327918176       -2.3056694609       -0.6205779529
 C         -4.4701450975       -1.1413887341       -0.3790352856
 N         -3.8237849329        0.0138812491        0.0186219566
 C         -2.3990155556        0.0349046371        0.0293308828
 C         -1.7212456841        0.5333891220       -1.0732930918
 C         -0.3395572201        0.5458064710       -1.0818411254
 C          0.3721535273        0.0543412673        0.0060044648
 C          1.8476460624        0.0416824337       -0.0115016034
 C          2.5448649294        1.2418110776       -0.1657633365
 C          1.8174287296        2.4305169728       -0.1809511104
 N          1.1489122582        3.3716794069       -0.1591755943
 C          3.9929096450        1.1701573020       -0.2189279648
 C          4.8516092967        2.3028556916       -0.4586322797
 C          4.4410812726        3.5352052070       -0.9894483651
 C          5.3680406385        4.5385362507       -1.1868784590
 C          6.6964938172        4.3013067438       -0.8582810361
 N          7.0893083088        3.1373255109       -0.3648374603
 C          6.2265062363        2.1801690206       -0.1698372755
 N          4.5737320635        0.0057161930       -0.0340268672
 C          3.9659271424       -1.1441760974        0.1580013561
 C          4.7981150425       -2.2984109955        0.3856905414
 C          4.3604587227       -3.5255315619        0.9074242422
 C          5.2646194564       -4.5518866032        1.0938730554
 C          6.5979109013       -4.3430482081        0.7636712370
 N          7.0158519907       -3.1846283014        0.2780594155
 C          6.1750279772       -2.2059811083        0.0933702825
 C          2.5159631186       -1.1773851017        0.1276938117
 C          1.7550057775       -2.3446801595        0.1506266777
 N          1.0573132446       -3.2646673861        0.1306317913
 C         -0.3146197275       -0.4386920638        1.1109783788
 C         -1.6944682037       -0.4463203498        1.1263551027
 C         -4.5170710737        1.0497379449        0.6139353220
 C         -3.8243712267        2.0301189227        1.3323795186
 C         -4.5087232944        3.0305230903        1.9873670476
 C         -5.8921898168        3.0635374217        1.9386188477
 C         -6.5786871588        2.1159769198        1.1974868523
 C         -5.9179334088        1.1072207126        0.5146160666
 H         -5.5327776140        0.9671372386       -2.1378399631
 H         -7.0757715289        1.7660303274       -1.8256732980
 H         -7.0419046250        0.1575122094       -2.5669079886
 H         -8.5933007601       -0.6789473425       -0.7846932748
 H         -8.6278961536        0.8992766024       -0.0514654460
 H         -8.1815890988       -0.5060046817        0.9273210140
 H         -7.5525738924       -2.3947388338       -0.9652710274
 H         -6.2613715082       -4.4214837856       -1.3226226556
 H         -3.7892274326       -4.3683068414       -1.1437735008
 H         -2.6582224874       -2.2893336431       -0.5301975907
 H         -2.2772651930        0.9068896480       -1.9199134767
 H          0.1889518047        0.9261982230       -1.9429601444
 H          3.4096156054        3.7007381292       -1.2566344661
 H          5.0698176266        5.4916328426       -1.5952281367
 H          7.4635820535        5.0492829992       -0.9929277393
 H          6.5982962511        1.2519725472        0.2432981124
 H          3.3256568045       -3.6695148044        1.1757866970
 H          4.9452882636       -5.5010038263        1.4953818954
 H          7.3483518039       -5.1096423809        0.8901922078
 H          6.5670975847       -1.2834671593       -0.3135389467
 H          0.2344122573       -0.8113475685        1.9627234048
 H         -2.2326877385       -0.8286706963        1.9809319311
 H         -2.7471507464        2.0002487577        1.3749500657
 H         -3.9621205223        3.7796019540        2.5388139788
 H         -6.4379748829        3.8346404180        2.4600173829
 H         -7.6527603274        2.1855251308        1.1539951024
