  70
  -111.592575597800       0.743173565626744      !
 C         -7.6103443285        0.1969926440       -1.2499986149
 C         -6.7233812382       -0.0250434145       -0.0101854440
 C         -7.5984992460       -0.2749892977        1.2325978443
 C         -5.8578543574       -1.2452809046       -0.2449788929
 C         -6.4531016141       -2.4753986718       -0.4865005956
 C         -5.7069745643       -3.6174149998       -0.7117879587
 C         -4.3231906748       -3.5425197602       -0.7019640618
 C         -3.7036736428       -2.3364584249       -0.4650025981
 C         -4.4571505225       -1.1784242364       -0.2291691766
 N         -3.8112026911        0.0181981851        0.0057865559
 C         -2.3863523223        0.0355513364        0.0137674198
 C         -1.6940358964        0.4223531448       -1.1255435735
 C         -0.3130936067        0.4269552772       -1.1188734057
 C          0.3818595755        0.0365169499        0.0193041951
 C          1.8596012511        0.0225170375        0.0162314083
 C          2.5512870044        1.2312485328       -0.0780206100
 C          1.7945063358        2.3987836279       -0.1568429335
 N          1.0854505767        3.3082805223       -0.2228194932
 C          4.0004151615        1.1690565512       -0.0776018942
 C          4.8674097810        2.3170976488       -0.1712994166
 C          4.4754829585        3.6524178539        0.0065695725
 C          5.4097573939        4.6619557477       -0.1077614101
 C          6.7275865586        4.3302885069       -0.3934693001
 N          7.1034369888        3.0717069090       -0.5549899716
 C          6.2331198783        2.1068409107       -0.4524408268
 N          4.5775622346       -0.0093835791        0.0029662510
 C          3.9740294834       -1.1743437128        0.0889836587
 C          4.8154750557       -2.3419831422        0.1721404068
 C          4.3911510942       -3.6684417588        0.0035716349
 C          5.3052379233       -4.6981352776        0.1031412213
 C          6.6351003331       -4.3956452832        0.3649444814
 N          7.0408970789       -3.1455168128        0.5203997295
 C          6.1900412474       -2.1621551435        0.4325393380
 C          2.5239575570       -1.2024643298        0.1035132113
 C          1.7405266295       -2.3521500390        0.1805471645
 N          1.0096209229       -3.2430075208        0.2556089839
 C         -0.3174826022       -0.3474641017        1.1571802905
 C         -1.6983632658       -0.3438784972        1.1581839381
 C         -4.4947983555        1.1959064461        0.2260782369
 C         -3.7780262856        2.3763695045        0.4642535571
 C         -4.4352013909        3.5654441872        0.6853356324
 C         -5.8206961633        3.6000444300        0.6781827469
 C         -6.5307029600        2.4353796829        0.4521462001
 C         -5.8969969956        1.2219649336        0.2242594170
 H         -8.2291109329       -0.6738595282       -1.4441366693
 H         -6.9880731195        0.3783012072       -2.1239851603
 H         -8.2633093127        1.0533320058       -1.1101077945
 H         -8.2173718788       -1.1571103527        1.0980612812
 H         -8.2499809574        0.5726408896        1.4234280194
 H         -6.9676224329       -0.4276323025        2.1061195795
 H         -7.5293835791       -2.5512163303       -0.5016170453
 H         -6.2023184697       -4.5581479676       -0.8948123417
 H         -3.7250703326       -4.4230697395       -0.8766381674
 H         -2.6266630398       -2.2846873302       -0.4602766795
 H         -2.2402095271        0.7178628239       -2.0084607693
 H          0.2293193066        0.7252850611       -2.0032945198
 H          3.4510789217        3.8962631272        0.2375621727
 H          5.1240679280        5.6942285317        0.0213920918
 H          7.4987955117        5.0793365346       -0.4950507175
 H          6.5904530209        1.0977659717       -0.6071753332
 H          3.3591521753       -3.8899557618       -0.2151466964
 H          4.9953387153       -5.7233953638       -0.0237323442
 H          7.3921773366       -5.1609962793        0.4527170349
 H          6.5719602376       -1.1606724585        0.5770592052
 H          0.2214893579       -0.6459746314        2.0435887344
 H         -2.2483798459       -0.6420976194        2.0378923286
 H         -2.6998791001        2.3538767886        0.4738643452
 H         -3.8657355380        4.4639290260        0.8640871167
 H         -6.3452799230        4.5266762999        0.8513504944
 H         -7.6088718549        2.4793338905        0.4565036040
  70
  -111.591085964500       0.153639253510827      !
 C         -7.6051437285        0.2313229049       -1.2480293715
 C         -6.7230733368       -0.0016290179       -0.0065134443
 C         -7.6038950035       -0.2413983707        1.2347253756
 C         -5.8718542898       -1.2313431890       -0.2444055654
 C         -6.4829721787       -2.4545994797       -0.4834321593
 C         -5.7518582831       -3.6028674449       -0.7257470594
 C         -4.3673637306       -3.5392798969       -0.7447259837
 C         -3.7325281879       -2.3404716809       -0.5099410233
 C         -4.4702564678       -1.1784275027       -0.2441799022
 N         -3.8089894294        0.0091596876       -0.0005155103
 C         -2.3852093305        0.0130732539        0.0028655394
 C         -1.6924273101        0.5116882998       -1.0924675518
 C         -0.3117833503        0.5151818845       -1.0863517374
 C          0.3849861573        0.0104306766        0.0055200980
 C          1.8612221785        0.0048198024        0.0050162557
 C          2.5465598450        1.2198605227       -0.0559929210
 C          1.7934199994        2.3919323518       -0.0150176983
 N          1.0977254685        3.3121005681        0.0471060648
 C          3.9957064510        1.1657839575       -0.0846450776
 C          4.8485281989        2.3222483003       -0.1989067687
 C          4.4323735595        3.6028607603       -0.5937587079
 C          5.3535251175        4.6278678080       -0.6748895850
 C          6.6822765294        4.3647150477       -0.3670387361
 N          7.0803873277        3.1563604624       -0.0008624587
 C          6.2229883948        2.1782221014        0.0836565020
 N          4.5835023336       -0.0068062149        0.0044802717
 C          3.9858410262       -1.1746303502        0.0927155135
 C          4.8288029449       -2.3384184383        0.2048430581
 C          4.4010857073       -3.6177653491        0.5916514429
 C          5.3136517495       -4.6507223113        0.6699152072
 C          6.6455266473       -4.3968963351        0.3673894727
 N          7.0546321836       -3.1897651214        0.0094415040
 C          6.2053950371       -2.2041184628       -0.0722319451
 C          2.5362861183       -1.2160865032        0.0647384771
 C          1.7727001350       -2.3811864035        0.0225446127
 N          1.0668601664       -3.2932925871       -0.0406724532
 C         -0.3147873525       -0.4907624674        1.0970995130
 C         -1.6954013087       -0.4846022685        1.1005385496
 C         -4.4799657059        1.1921209340        0.2381483806
 C         -3.7518393452        2.3598665403        0.5049538134
 C         -4.3962942964        3.5544254948        0.7352074580
 C         -5.7810543338        3.6078264130        0.7108663369
 C         -6.5028079428        2.4538605614        0.4674636877
 C         -5.8818370837        1.2348588708        0.2324106157
 H         -8.2389144027       -0.6297265316       -1.4394355514
 H         -6.9783420319        0.3979280325       -2.1220226267
 H         -8.2429179238        1.0999452472       -1.1123697967
 H         -8.2344964910       -1.1153821545        1.0989132481
 H         -8.2446088403        0.6144853926        1.4256935358
 H         -6.9759643038       -0.4028372758        2.1089217161
 H         -7.5602736296       -2.5193493316       -0.4831610042
 H         -6.2590619385       -4.5381576725       -0.9052159795
 H         -3.7804161500       -4.4223279628       -0.9436809820
 H         -2.6552272777       -2.2977340297       -0.5336469701
 H         -2.2389243146        0.8961520330       -1.9404497771
 H          0.2293283107        0.9002003662       -1.9375134282
 H          3.4006840396        3.7907072740       -0.8453093287
 H          5.0502723499        5.6180310397       -0.9776396390
 H          7.4450554153        5.1280674460       -0.4142906808
 H          6.5993956472        1.2130454579        0.3954195559
 H          3.3670811354       -3.7987456762        0.8389717275
 H          5.0013683368       -5.6399561061        0.9664855312
 H          7.4020479895       -5.1667379913        0.4128001469
 H          6.5901930477       -1.2406544940       -0.3791260496
 H          0.2239250468       -0.8769106603        1.9493035950
 H         -2.2443142012       -0.8688086179        1.9471142558
 H         -2.6744374675        2.3245656531        0.5328747802
 H         -3.8169340310        4.4422215252        0.9349668582
 H         -6.2957206936        4.5396935718        0.8868864852
 H         -7.5805710832        2.5107791507        0.4625147217
  70
  -111.590289738000       6.615791725690280E-002 !
 C         -7.5994332647       -0.1505464914       -1.2363459247
 C         -6.7038265161       -0.1760206792        0.0169110973
 C         -7.5663225505       -0.3365398698        1.2834274927
 C         -5.7649427564       -1.3606026531       -0.0815520517
 C         -6.2837388961       -2.6451361111       -0.1691114554
 C         -5.4685110134       -3.7590007490       -0.2532458019
 C         -4.0914380024       -3.6004023119       -0.2454446270
 C         -3.5465775642       -2.3390767620       -0.1592822814
 C         -4.3706300053       -1.2074068028       -0.0822490426
 N         -3.8002329272        0.0471218531       -0.0015391329
 C         -2.3783012321        0.1458751173       -0.0040101396
 C         -1.6905184117        0.1604187777       -1.2095236706
 C         -0.3098748257        0.1943943149       -1.2086081764
 C          0.3861134190        0.2160357229       -0.0071218795
 C          1.8656664501        0.1595933839       -0.0072775789
 C          2.6120862899        1.3356526743        0.0080607875
 C          1.9011625623        2.5334901877        0.0607682955
 N          1.2158699203        3.4613738162        0.1154601436
 C          4.0569506769        1.2027159329       -0.0078630850
 C          4.9755930873        2.3129234570       -0.0180498929
 C          4.6324714537        3.6507905299       -0.2669430146
 C          5.6129038605        4.6227213502       -0.2565933680
 C          6.9271207537        4.2511631564       -0.0024172870
 N          7.2559665845        2.9897564002        0.2293353196
 C          6.3420936661        2.0604256800        0.2258464789
 N          4.5765513073       -0.0057397329       -0.0068608677
 C          3.9159220089       -1.1425306698       -0.0045663997
 C          4.6906042686       -2.3579672636        0.0077968071
 C          4.1827755700       -3.6391490204        0.2721045392
 C          5.0314617179       -4.7279426392        0.2616194256
 C          6.3793506806       -4.5277074230       -0.0078469208
 N          6.8639533240       -3.3201663055       -0.2532454997
 C          6.0752015400       -2.2819918879       -0.2497813774
 C          2.4672887303       -1.0998637549       -0.0212089435
 C          1.6143847262       -2.2009619386       -0.0718588828
 N          0.8177974608       -3.0361574450       -0.1230411469
 C         -0.3081653156        0.2332549751        1.1953349180
 C         -1.6888553485        0.1977996936        1.1994197267
 C         -4.5542136555        1.1978126821        0.0877461973
 C         -3.9095716999        2.4404985350        0.1571196955
 C         -4.6372950813        3.6053249511        0.2507518046
 C         -6.0224177893        3.5535683119        0.2742166320
 C         -6.6612115613        2.3293043566        0.1986041125
 C         -5.9555400653        1.1379424160        0.1034969352
 H         -8.1668907825       -1.0724463637       -1.3248361530
 H         -6.9860995966       -0.0372867351       -2.1282286965
 H         -8.3004917479        0.6780546237       -1.1943008863
 H         -6.9298198143       -0.3521210729        2.1660416057
 H         -8.1313463447       -1.2636024549        1.2516646386
 H         -8.2680149882        0.4868694105        1.3805576639
 H         -7.3535717273       -2.7872547247       -0.1721593930
 H         -5.9053367508       -4.7433006574       -0.3217706321
 H         -3.4395769788       -4.4577748245       -0.3053909368
 H         -2.4742617540       -2.2252941059       -0.1491992437
 H         -2.2395214023        0.1279762127       -2.1386151105
 H          0.2318450155        0.1897398597       -2.1426928432
 H          3.6105189051        3.9245360573       -0.4762925677
 H          5.3664524594        5.6555556201       -0.4478962851
 H          7.7342482622        4.9688651935        0.0153802728
 H          6.6625191605        1.0478181389        0.4314781109
 H          3.1366590237       -3.7787468069        0.4940226173
 H          4.6573112681       -5.7196059140        0.4638256347
 H          7.0881114911       -5.3426500528       -0.0281271407
 H          6.5203917844       -1.3197847141       -0.4652984286
 H          0.2349515205        0.2597223371        2.1282227986
 H         -2.2363999384        0.1958393185        2.1299409822
 H         -2.8319533321        2.4833995571        0.1352545673
 H         -4.1238075670        4.5526596191        0.3044841567
 H         -6.6019428109        4.4607128980        0.3485281309
 H         -7.7401128706        2.3083498237        0.2145829811
  70
  -111.589741317200       3.702926360552605E-002 !
 C         -6.5626618999        0.7993825136       -1.8465104187
 C         -6.6264555537        0.1618689686       -0.4386154146
 C         -8.0965636736       -0.0402844574       -0.0619380781
 C         -5.8689655228       -1.1488105656       -0.5183614130
 C         -6.4834304086       -2.3476215930       -0.8442602812
 C         -5.7540522279       -3.5074879359       -1.0465379386
 C         -4.3732683363       -3.4801871900       -0.9433967071
 C         -3.7344398996       -2.3063359826       -0.6080595232
 C         -4.4708939760       -1.1397161906       -0.3752162618
 N         -3.8237850933        0.0176512535        0.0150556588
 C         -2.3990064422        0.0373909222        0.0269124420
 C         -1.7197658717        0.5276173853       -1.0785054301
 C         -0.3380589978        0.5386595172       -1.0858849242
 C          0.3721998918        0.0540268815        0.0059675295
 C          1.8476947861        0.0398423460       -0.0101118244
 C          2.5462025770        1.2382145359       -0.1720085605
 C          1.8199202863        2.4274798115       -0.1960488789
 N          1.1522870547        3.3694062896       -0.1813672214
 C          3.9942252440        1.1648168344       -0.2233639200
 C          4.8542260138        2.2950176422       -0.4700898859
 C          4.4453580139        3.5240694049       -1.0097592536
 C          5.3734563298        4.5251323816       -1.2132584528
 C          6.7013848844        4.2889083562       -0.8818283442
 N          7.0926385812        3.1279824826       -0.3800178633
 C          6.2287439593        2.1730150851       -0.1792085325
 N          4.5737642416        0.0011252377       -0.0299146709
 C          3.9646844548       -1.1468366525        0.1694825514
 C          4.7955599516       -2.3002667604        0.4058766318
 C          4.3562575372       -3.5233444492        0.9356580481
 C          5.2592655571       -4.5492506179        1.1299967020
 C          6.5930535499       -4.3439632652        0.7995735094
 N          7.0125423450       -3.1893168061        0.3063687032
 C          6.1728236683       -2.2111655264        0.1141759764
 C          2.5147171540       -1.1788727394        0.1380887440
 C          1.7526207403       -2.3452566826        0.1683756479
 N          1.0540648460       -3.2646949408        0.1540887670
 C         -0.3160409454       -0.4307237863        1.1136895432
 C         -1.6959093941       -0.4369316535        1.1278662255
 C         -4.5166139124        1.0582467002        0.6025861806
 C         -3.8236220601        2.0428964275        1.3148847209
 C         -4.5076045644        3.0484430302        1.9623404166
 C         -5.8909943201        3.0824382281        1.9121103258
 C         -6.5777317679        2.1304458871        1.1769039599
 C         -5.9173304468        1.1163777235        0.5016018288
 H         -5.5299195845        0.9576473667       -2.1494750944
 H         -7.0724275188        1.7601425153       -1.8442223714
 H         -7.0394349027        0.1465217388       -2.5743222596
 H         -8.5932372617       -0.6761550876       -0.7877935292
 H         -8.6269801957        0.9071177516       -0.0654921783
 H         -8.1829025767       -0.4918078024        0.9233610826
 H         -7.5539935115       -2.3941410087       -0.9555969324
 H         -6.2644133062       -4.4245299341       -1.2977994876
 H         -3.7923815219       -4.3724760700       -1.1170776284
 H         -2.6599372654       -2.2904010445       -0.5168187366
 H         -2.2746640775        0.8958026807       -1.9281841828
 H          0.1915900605        0.9126029690       -1.9491252205
 H          3.4142926515        3.6887390239       -1.2790158569
 H          5.0765151943        5.4756751797       -1.6284377979
 H          7.4693108399        5.0352077640       -1.0209308116
 H          6.5992715938        1.2473347214        0.2406515555
 H          3.3210767020       -3.6644887770        1.2040672659
 H          4.9386630004       -5.4952731056        1.5377475031
 H          7.3426448921       -5.1103815270        0.9320559523
 H          6.5661439380       -1.2918521736       -0.2987257177
 H          0.2318659355       -0.7980221013        1.9684806478
 H         -2.2352649375       -0.8128694989        1.9845691757
 H         -2.7464695016        2.0122944224        1.3586377125
 H         -3.9607809527        3.8007842786        2.5091073103
 H         -6.4365094153        3.8576364009        2.4276863878
 H         -7.6516981488        2.2007156301        1.1319591768
