  96
       -157.12547494
 C          9.8169682260        2.9654543715        0.4386566254
 C          8.8691803812        3.2843544520       -0.5191191629
 C          7.7028576339        2.5482099111       -0.6141608860
 C          7.4714767124        1.4736438577        0.2410590271
 C          6.2239474183        0.7003782454        0.1407931477
 C          5.0146876919        1.3834679530        0.1025435290
 C          3.7937767773        0.7182178113        0.0604865123
 N          2.6263303251        1.3627310636        0.0348476628
 C          1.4752199283        0.7087872731        0.0008741488
 C          0.2335240610        1.4127872585       -0.0317203970
 C          0.2440197276        2.8176448415       -0.0005893070
 C         -0.9200528703        3.5352747698       -0.0109245641
 C         -2.1460218674        2.8539868664       -0.0727699086
 N         -3.3567186721        3.5886257450       -0.0781747846
 C         -4.2546887163        3.4881735703        0.9809750594
 C         -4.0215038871        2.6708387914        2.0821201666
 C         -4.9420590376        2.5931468572        3.1142990660
 C         -6.1062377399        3.3359547228        3.0721169232
 C         -6.3427922427        4.1760987152        1.9950168491
 C         -5.4276379982        4.2590385438        0.9612568746
 O         -5.7164652652        5.1301157033       -0.0568038418
 C         -4.8273745799        5.2080813398       -1.0971747958
 C         -5.1402951394        6.0711385695       -2.1315044687
 C         -4.2987529688        6.1804093936       -3.2280179537
 C         -3.1538134176        5.4093255439       -3.2897071380
 C         -2.8336916916        4.5440497600       -2.2564267215
 C         -3.6514622148        4.4436177384       -1.1358345126
 C         -2.1772758558        1.4773967305       -0.1199273524
 C         -1.0003878472        0.7169346874       -0.0873031516
 C         -1.0004567015       -0.7226134055       -0.0938219163
 C         -2.1779078323       -1.4815410660       -0.1350850448
 C         -2.1490427916       -2.8585422811       -0.0956012695
 N         -3.3617529828       -3.5892067755       -0.0995492535
 C         -3.6588855120       -4.4524072793       -1.1502101190
 C         -2.8378443564       -4.5697754126       -2.2668336429
 C         -3.1590932492       -5.4445925920       -3.2916465769
 C         -4.3089747546       -6.2080382445       -3.2258804020
 C         -5.1545090998       -6.0806668656       -2.1344670633
 C         -4.8403303892       -5.2081572459       -1.1084637993
 O         -5.7342891545       -5.1120879742       -0.0738423563
 C         -5.4407510544       -4.2369442947        0.9393517792
 C         -6.3582387746       -4.1396706893        1.9698448678
 C         -6.1171833185       -3.2961078984        3.0431813144
 C         -4.9457087512       -2.5648558720        3.0852262140
 C         -4.0231994683       -2.6566568319        2.0560690108
 C         -4.2611795935       -3.4763989292        0.9575782562
 C         -0.9236394725       -3.5413949333       -0.0376752981
 C          0.2412952565       -2.8251356830       -0.0224719930
 C          0.2329219051       -1.4199817240       -0.0419615441
 C          1.4752239776       -0.7172904035       -0.0017339396
 N          2.6265117794       -1.3710612639        0.0353535218
 C          3.7939129025       -0.7261842305        0.0625383948
 C          5.0160060128       -1.3901265298        0.0939277677
 C          6.2249210682       -0.7057757895        0.1245391581
 C          7.4774635206       -1.4768591761        0.0978644663
 C          7.6596223286       -2.5509183707        0.9657168994
 C          8.8319752184       -3.2832390031        0.9421359097
 C          9.8359681062       -2.9605096000        0.0447386368
 C          9.6579488377       -1.9037042700       -0.8330276780
 C          8.4892587072       -1.1669839206       -0.8083973854
 C          8.4270438192        1.1668805407        1.2074410031
 C          9.5890744872        1.9080379816        1.3040853837
 H         10.7283407765        3.5404921914        0.5125367332
 H          9.0400862639        4.1096199206       -1.1955566675
 H          6.9702307820        2.7902812936       -1.3710762952
 H          5.0021014978        2.4625534158        0.1322835385
 H          1.2031610879        3.3098495978        0.0453868215
 H         -0.9125851907        4.6139321972        0.0322397017
 H         -3.1088654485        2.0987208460        2.1349976216
 H         -4.7380241294        1.9473657479        3.9542929318
 H         -6.8264020620        3.2750723849        3.8724949765
 H         -7.2323647197        4.7827692626        1.9389133896
 H         -6.0494841137        6.6462561844       -2.0600882217
 H         -4.5477059228        6.8586778918       -4.0285957333
 H         -2.4995871739        5.4728090572       -4.1453869307
 H         -1.9447855793        3.9366959321       -2.3204412767
 H         -3.1407829122        0.9954083936       -0.1774700692
 H         -3.1403667843       -0.9974958035       -0.1926834826
 H         -1.9449436459       -3.9686269032       -2.3338555336
 H         -2.5026408653       -5.5210210840       -4.1445494648
 H         -4.5592521890       -6.8933306260       -4.0200656479
 H         -6.0683861093       -6.6481497777       -2.0614482628
 H         -7.2531558928       -4.7384901245        1.9144735791
 H         -6.8390600875       -3.2241502570        3.8410729365
 H         -4.7370189226       -1.9172649800        3.9226852817
 H         -3.1048696380       -2.0938664932        2.1097605566
 H         -0.9172542204       -4.6202407300        0.0005710474
 H          1.1996769231       -3.3190334484        0.0218181881
 H          5.0065255900       -2.4692396416        0.0629879053
 H          6.8821892022       -2.7962773334        1.6754068872
 H          8.9641756978       -4.1077938010        1.6280524200
 H         10.7523976172       -3.5320339992        0.0275797360
 H         10.4340003360       -1.6532096743       -1.5417348200
 H          8.3512592318       -0.3504443696       -1.5018656683
 H          8.2486925354        0.3508600166        1.8922372105
 H         10.3207757105        1.6607223505        2.0595472702
