96
 energy: -157.131169868030 gnorm: 0.000108063901 xtb: 6.7.1 (edcfbbe)
C            9.83641500138756        2.96776891846692       -0.06639548291932
C            8.82836286919230        3.29218980443106       -0.95842747798423
C            7.65726794994589        2.55774246319100       -0.98022368066894
C            7.48112718912457        1.47979246124124       -0.11635032686921
C            6.22947492132935        0.70641207986750       -0.13951382650456
C            5.01975623773912        1.38828256873808       -0.09636009609091
C            3.79970601761340        0.72277538681453       -0.06018086655478
N            2.63013396047510        1.36410141501667       -0.02229955578820
C            1.47714388909343        0.71018737033432        0.02146108318357
C            0.23564993768890        1.41323321586651        0.06644683027822
C            0.24200144615116        2.81848886045146        0.03259722535700
C           -0.92454184257145        3.53238355556891        0.04489864009393
C           -2.14864814119803        2.85008828492330        0.11997606751805
N           -3.36161748002544        3.57745814778389        0.11889573886439
C           -3.64497429426999        4.47488276029089        1.14614834177394
C           -2.81247207337112        4.62434657014043        2.24989295466641
C           -3.11999386981652        5.53167269993399        3.25083312140076
C           -4.26811019573590        6.29585732046334        3.17398473809284
C           -5.12609632298218        6.13569250762958        2.09654682444646
C           -4.82529935707962        5.23087181925040        1.09505544810635
O           -5.73287730993382        5.10405701275448        0.07516117284540
C           -5.45721045148571        4.19043040783868       -0.90932702974332
C           -6.39231815420129        4.05801242342608       -1.91967160477326
C           -6.17196722818616        3.17531495047236       -2.96575233221386
C           -5.00239714039249        2.44164833107959       -3.00161700361872
C           -4.06177844225010        2.56963632590992       -1.99248662156158
C           -4.27969260896300        3.42735857705269       -0.91954609448909
C           -2.17353499973826        1.47292650704796        0.17833570883293
C           -0.99536056571191        0.71651825858809        0.13310125520073
C           -0.99418950013856       -0.72458547164740        0.12690299932689
C           -2.17129139241252       -1.48295806165011        0.16570925964180
C           -2.14466695156689       -2.85953600425324        0.09563163989501
N           -3.35702326395856       -3.58798553842525        0.08931232392220
C           -4.27709544904394       -3.42761938472261       -0.94579906017211
C           -4.05826757109047       -2.56386526601651       -2.01369153292361
C           -5.00120835291238       -2.42494629952902       -3.01919755117142
C           -6.17414381299846       -3.15328410090182       -2.98459724954787
C           -6.39530175123924       -4.04227230425194       -1.94400194600721
C           -5.45764457676780       -4.18597960671829       -0.93758633937390
O           -5.73391609795803       -5.10570207714213        0.04104259047296
C           -4.82357685444593       -5.24375645056490        1.05700896131350
C           -5.12439285975701       -6.15560096376423        2.05209143581074
C           -4.26409265437610       -6.32678135463543        3.12598503267114
C           -3.11365636973154       -5.56643161410794        3.20591065552866
C           -2.80592954081786       -4.65232325735276        2.21120483670007
C           -3.64069056079099       -4.49192196766462        1.11072701751254
C           -0.91971319953759       -3.53947136147054        0.01389052086995
C            0.24592330086500       -2.82386971507651        0.00753217710614
C            0.23785300759813       -1.41899868855974        0.05430065141816
C            1.47844223952608       -0.71375568316777        0.01600413922998
N            2.63276602681555       -1.36514322639575       -0.03023807299981
C            3.80119312741090       -0.72130330883962       -0.06436832812074
C            5.02216016395770       -1.38380403569272       -0.11968100860630
C            6.23020854667928       -0.69898806450819       -0.16436388205659
C            7.47889288748154       -1.46892668173662       -0.27971618785903
C            7.72189270482532       -2.54628672486732        0.56845503877116
C            8.89018314059540       -3.27743928799381        0.45934293861923
C            9.82807025769983       -2.95023170685555       -0.50525853530083
C            9.58840863435627       -1.88979194735985       -1.36360610018252
C            8.42426564105214       -1.15383841362401       -1.25315705223314
C            8.49722065124974        1.16759849105987        0.78399713165117
C            9.66429709452170        1.90683665235190        0.80740908319542
H           10.75157818013465        3.54122300181340       -0.05019359698484
H            8.95595374359799        4.12010882370414       -1.64104645657675
H            6.87678767425835        2.80435663625764       -1.68610637728261
H            5.00924321131086        2.46716885386282       -0.06059055582787
H            1.19840036100526        3.31511640616659       -0.02282276375973
H           -0.91910722961005        4.61061958251439       -0.00852063334586
H           -1.92088604657786        4.02249674980628        2.32790151322648
H           -2.45337520239910        5.63255885841496        4.09330400653038
H           -4.50790541129005        7.00666937565258        3.94874496899429
H           -6.03972565044545        6.70249051631196        2.01551597176178
H           -7.28503120080607        4.66065724268880       -1.87032334302434
H           -6.90816779991312        3.07547277828645       -3.74740203983221
H           -4.80867306544713        1.76381722228537       -3.81850727411331
H           -3.14499871438138        2.00416809517657       -2.04423664355194
H           -3.13417890342478        0.98770848271481        0.25124154366019
H           -3.13258550712031       -0.99963815280224        0.24261030707353
H           -3.13904054742553       -2.00224202141717       -2.06421223164922
H           -4.80670189583751       -1.74275142479205       -3.83226239430534
H           -6.91237893214577       -3.04455259246660       -3.76313441283662
H           -7.29064662019255       -4.64111567811932       -1.89605311249873
H           -6.03997785264506       -6.71895582566262        1.96907577285606
H           -4.50396108971723       -7.04300226552855        3.89572268802155
H           -2.44534587878647       -5.67564934475105        4.04599848179534
H           -1.91246550426132       -4.05360232547997        2.29167168158276
H           -0.91279016160342       -4.61716033693819       -0.04940012645007
H            1.20287413932334       -3.31880728236359       -0.05319607519755
H            5.01178894003513       -2.46273510818177       -0.15381241139985
H            6.99679824119088       -2.79515276066079        1.33039192314889
H            9.07062325039638       -4.10498283387179        1.13038969618739
H           10.74103677349164       -3.52117882631737       -0.58976529906297
H           10.31248062384861       -1.63565945858765       -2.12404044641051
H            8.23682921064675       -0.33498001053027       -1.93206608043067
H            8.36324776961212        0.34828665597382        1.47491858799859
H           10.44377144874618        1.65483871501686        1.51171624728813
