96
 energy: -157.172319481088 gnorm: 0.000054023266 xtb: 6.7.1 (edcfbbe)
C            9.85376319646091        2.91688465874184        0.03964967044628
C            8.86727376107280        3.26358675078958       -0.86798651389280
C            7.68487144948005        2.54844385902641       -0.91483038620326
C            7.47857383233039        1.46813601407345       -0.06150829075061
C            6.21299037408518        0.71588280119230       -0.11047794425132
C            5.02406973688340        1.39887506370664       -0.06356675389487
C            3.79389472172606        0.71418568821617       -0.05146627718291
N            2.64368165510016        1.40023654587366       -0.00427663431497
C            1.51630696196965        0.71300013897058        0.01806999615301
C            0.26182898328198        1.42800300331781        0.05985746035124
C            0.26283338008336        2.82616463730103        0.01918433576367
C           -0.91204682796571        3.53609619940827        0.02671902912595
C           -2.12818871872867        2.85007608977869        0.10043128692956
N           -3.34577502740551        3.55824592570959        0.09058411040377
C           -3.62849593432384        4.49929023387768        1.08480752176723
C           -2.78108821517439        4.71580735874094        2.16437759729451
C           -3.08924119908363        5.66026596827511        3.13160812155035
C           -4.25475058203422        6.39405352904381        3.04491721343249
C           -5.13065534979500        6.16202611308856        1.99490636185046
C           -4.82878401924543        5.21998306580137        1.02922106937609
O           -5.76195328905773        5.02093746256633        0.04287316956545
C           -5.49072002561077        4.06253023242160       -0.90116439772428
C           -6.45302064152399        3.85608687470057       -1.87223637572775
C           -6.24131404900540        2.93217294487613       -2.88446315603256
C           -5.05079053186622        2.23624948347656       -2.92790118512458
C           -4.08317662470221        2.43874776041469       -1.95585611477519
C           -4.29468607635008        3.33171473999671       -0.91207432373349
C           -2.13864757247231        1.46669790639481        0.16549876157607
C           -0.95686103416373        0.72439487767612        0.12647420275248
C           -0.95584157237232       -0.73135164518699        0.11704875628368
C           -2.13597440437406       -1.47591031233350        0.16177954366215
C           -2.12471176966544       -2.85817235043092        0.07632943580018
N           -3.34110495431867       -3.56842455698345        0.07965281592957
C           -4.31199005337817       -3.32590121489707       -0.89791708515773
C           -4.12151458835738       -2.41949201430127       -1.93414702632315
C           -5.11063721964916       -2.20064976996181       -2.88067117399365
C           -6.30216986375701       -2.89352769185101       -2.81918323450596
C           -6.49349821700806       -3.83076510028967       -1.81519392243446
C           -5.50975134958893       -4.05337369533898       -0.86951121707162
O           -5.76226966905250       -5.02379269101924        0.06739795586573
C           -4.80768679699450       -5.23833249427474        1.02967114180171
C           -5.09100271838985       -6.19193927527582        1.98962213354982
C           -4.19253849264781       -6.44053789477349        3.01649573331346
C           -3.02283516092127       -5.71168268476440        3.08626286463953
C           -2.73341544976128       -4.75545634809849        2.12482116761246
C           -3.60412660900943       -4.52190789606798        1.06755838182437
C           -0.90894651168611       -3.54082612804392       -0.02855768770743
C            0.26500659528328       -2.82931701177223       -0.03863105896826
C            0.26309915769012       -1.43216488363386        0.02817258035862
C            1.51680493937483       -0.71521358692785       -0.00355034665806
N            2.64455316438427       -1.40049000129044       -0.05291106892427
C            3.79427838770521       -0.71242942063916       -0.07913189036233
C            5.02416547527388       -1.39482759134533       -0.14280743633397
C            6.21248841489235       -0.70962123373669       -0.16971299103832
C            7.47419630556654       -1.45912040591670       -0.29724017152472
C            7.73464249340033       -2.54042783980480        0.53987361721418
C            8.91357036796121       -3.25272980575111        0.41954824198581
C            9.84214736497595       -2.90204215442536       -0.54581773323089
C            9.58367100283366       -1.83786836134811       -1.39381097672892
C            8.40971832543934       -1.11918074636927       -1.27105977902756
C            8.47254036992897        1.13204759849468        0.85396835774400
C            9.65001084386287        1.85375530209010        0.90371563325542
H           10.77746459560945        3.47524161178877        0.07557403532899
H            9.01987224735643        4.09373347897369       -1.54229082420546
H            6.91947896763000        2.81206454593648       -1.63083646624613
H            5.00615538867727        2.47694105675083       -0.00874726821892
H            1.21663053939997        3.32617979702732       -0.03828992233710
H           -0.90973638619363        4.61400169300532       -0.03414387269408
H           -1.87544898062958        4.13706902953649        2.25595953675010
H           -2.40812475898526        5.81177717951873        3.95481935198002
H           -4.49613953873044        7.13442289393056        3.79106552293414
H           -6.06099419739648        6.70030867753064        1.90903603747224
H           -7.36074392372154        4.43575100571502       -1.82058736571772
H           -6.99983183493403        2.77431460876243       -3.63462754244275
H           -4.85882858758530        1.53058142380753       -3.72132824851447
H           -3.14962236740616        1.90254807336874       -2.02042134700301
H           -3.09608767599082        0.97643469004621        0.24101209632937
H           -3.09252018930962       -0.98822197575809        0.26139115926810
H           -3.18784978128187       -1.88533534439550       -2.01278670931702
H           -4.93508636564853       -1.48426484676466       -3.66822781028416
H           -7.07736835242315       -2.72288691338692       -3.54922143829904
H           -7.40174182101559       -4.40830302353587       -1.75045067371401
H           -6.02500041056155       -6.72592321325740        1.91779822152899
H           -4.41966804537615       -7.18972993041586        3.75830141304355
H           -2.32379456967107       -5.87616376077616        3.89177463206760
H           -1.82405579191474       -4.18076042042936        2.20382289151415
H           -0.90618035605959       -4.61747215471544       -0.10859752320634
H            1.21852222978985       -3.32711561312858       -0.11645830510554
H            5.00490393565116       -2.47291353184175       -0.19684047095651
H            7.01502097258034       -2.80714662411424        1.30078015054921
H            9.10886652470078       -4.08378215247632        1.08161441813901
H           10.76320988961772       -3.45812575314730       -0.63906830557412
H           10.30056984078879       -1.56602624965705       -2.15460313174096
H            8.20762061126812       -0.29707939529200       -1.94178466340353
H            8.31372463403659        0.31058278478149        1.53701603126988
H           10.41261255952866        1.58507850452238        1.61988196559412
