96
 energy: -157.131180950785 gnorm: 0.000101943636 xtb: 6.7.1 (edcfbbe)
C            9.82540198904325        2.95835048937556        0.43856134044954
C            8.87608424132529        3.28000058465833       -0.51667689156182
C            7.70759608293333        2.54689325799131       -0.60898448582446
C            7.47560359084857        1.47321471014326        0.24696304500640
C            6.22695680831872        0.70097871649058        0.14791829019632
C            5.01778665898076        1.38412088572020        0.10972621355596
C            3.79727918634343        0.71990579476106        0.06652521530495
N            2.62815094600709        1.36272876659319        0.03632112759602
C            1.47441606956790        0.70965481169808        0.00049796213721
C            0.23324125047955        1.41386953122741       -0.03811442010354
C            0.24293326366876        2.81930426289495       -0.01671807322882
C           -0.92217691790425        3.53543020391942       -0.03050881690677
C           -2.14778347742533        2.85439821923671       -0.08627975704051
N           -3.35880980444001        3.58620937547999       -0.08864726792600
C           -4.25639935275780        3.47897124690907        0.97187381640992
C           -4.02050571233669        2.65798075884523        2.06924672087350
C           -4.93971057604779        2.57363290333696        3.10248819052738
C           -6.10503310355821        3.31401029541119        3.06484017449092
C           -6.34369276895791        4.15875210930214        1.99160375748987
C           -5.42993685226872        4.24805264582576        0.95740785947353
O           -5.72160895258533        5.12498905443054       -0.05563541960592
C           -4.83261577148003        5.21087122133925       -1.09609608627930
C           -5.14770519705693        6.08016532124694       -2.12423746124244
C           -4.30793124975078        6.19783990462875       -3.22145363708276
C           -3.16301214122099        5.42809128351694       -3.29003111643754
C           -2.84088497165037        4.55636846488180       -2.26237041363522
C           -3.65603719226199        4.44861830752665       -1.14105633939553
C           -2.17686296345859        1.47687270398488       -0.12676837029669
C           -0.99940524950979        0.71854801190666       -0.08996567777346
C           -0.99941883802504       -0.72269397733005       -0.08953972901659
C           -2.17690015362523       -1.48081080535855       -0.12768089048012
C           -2.14834367717103       -2.85834826401192       -0.08589215743562
N           -3.35957418531260       -3.58961317184642       -0.09039604167458
C           -3.65545980860437       -4.45190881952692       -1.14341611067523
C           -2.83555598560560       -4.56451585371736       -2.26078673085263
C           -3.15646423943188       -5.43620781140260       -3.28885710459011
C           -4.30491251679247       -6.20106715032697       -3.22478015914349
C           -5.14940092613860       -6.07834008943282       -2.13176760059490
C           -4.83548956824056       -5.20908331452694       -1.10322677167238
O           -5.72932135888000       -5.11796799906871       -0.06736514937767
C           -5.44061267897607       -4.23844521474387        0.94423788733445
C           -6.36114534544549       -4.14091520324645        1.97167110068460
C           -6.12584747796658       -3.29351166874255        3.04353574872175
C           -4.95694180341307       -2.55911061132497        3.08691400845987
C           -4.03103470643866       -2.65162790287845        2.06038118114531
C           -4.26361302013519       -3.47477907781388        0.96388843692302
C           -0.92290489915492       -3.53951909010936       -0.02747921328356
C            0.24236054457255       -2.82360731480967       -0.01326045210667
C            0.23310792231410       -1.41817551315829       -0.03600014671783
C            1.47435591944862       -0.71409288492278        0.00240224324335
N            2.62808319087625       -1.36703871881636        0.04232285956340
C            3.79719819975880       -0.72409002405195        0.06961876447352
C            5.01827681777892       -1.38802730417925        0.10035390670530
C            6.22752398671361       -0.70459829230290        0.13022574420088
C            7.47970883396218       -1.47687073345832        0.09991412210464
C            7.66420329830742       -2.55101582269303        0.96674713431826
C            8.83571297827072       -3.28458279624860        0.93793749294860
C            9.83583933067540       -2.96295256714954        0.03603734793302
C            9.65530039670665       -1.90583732209239       -0.84069455932670
C            8.48773748057703       -1.16763097985782       -0.81049375892416
C            8.43224289246206        1.16409542453983        1.21125535082034
C            9.59675035382422        1.90185762066153        1.30474050032056
H           10.73872917271029        3.53055037343052        0.50967455279918
H            9.04778173956731        4.10455971644718       -1.19367172785892
H            6.97362073544824        2.79118560237809       -1.36386108151381
H            5.00620380223403        2.46318692797392        0.13875902780240
H            1.20081852679365        3.31419087575993        0.02693778566732
H           -0.91485229717138        4.61433705887220        0.00666922975595
H           -3.10663313256167        2.08758461607848        2.11982358278961
H           -4.73272831738440        1.92475437469724        3.93941131571469
H           -6.82435108152176        3.24833089976052        3.86560790230443
H           -7.23429389560433        4.76425857370515        1.93928467740117
H           -6.05773812153200        6.65339571388581       -2.04817106121973
H           -4.55918588152188        6.88076991418788       -4.01738055639249
H           -2.51049187913474        5.49674639660220       -4.14666654700107
H           -1.95171911438033        3.94989368076086       -2.33230997153742
H           -3.13957413523103        0.99332781004218       -0.18175240739451
H           -3.13933685215466       -0.99702813396666       -0.18528991185718
H           -1.94357151869359       -3.96185744184729       -2.32757842006730
H           -2.50011818958720       -5.50866302292731       -4.14224773148004
H           -4.55524921873971       -6.88396214098466       -4.02102561981918
H           -6.06231579325922       -6.64744962329447       -2.05933912337653
H           -7.25437656374174       -4.74216156106670        1.91519392890584
H           -6.85057095674865       -3.22114013348939        3.83883392619779
H           -4.75249193961628       -1.90840787893761        3.92304472534037
H           -3.11458710618198       -2.08580888560122        2.11558364299579
H           -0.91576562223687       -4.61838360641906        0.01090047147174
H            1.20010693643624       -3.31870343264315        0.03121774513177
H            5.00874868364537       -2.46710058935877        0.07023254671063
H            6.89002123237940       -2.79535936740354        1.68031047060605
H            8.96982688322105       -4.10962660127372        1.62278132292366
H           10.75137172452574       -3.53563939997025        0.01442034873714
H           10.42851701057721       -1.65602433329027       -1.55263193186918
H            8.34704835221198       -0.35145832640160       -1.50377903877165
H            8.25352936579729        0.34841133266400        1.89630407741321
H           10.32982623339742        1.65217182714449        2.05798633641622
