69
 energy: -112.962872395151 gnorm: 0.000140495318 xtb: 6.7.1 (edcfbbe)
C            6.40945056835266        1.51438248091506       -0.83351953855823
C            6.14218243742487        0.48295136763010        0.26924537278432
C            6.56308345870475        1.02373546076665        1.63743656402528
C            6.91298353090393       -0.80378355842027       -0.03177933734164
N            4.71187242463200        0.17420510668602        0.29284570279245
C            3.75259922351115        1.13907496314792        0.59899093963867
O            4.02435139818343        2.26899435526708        1.02402171624507
C            2.44392544869329        0.64764875477123        0.32627131887310
C            1.22934177015732        1.30933595602499        0.58964877407603
C            0.04250313362885        0.67335790238027        0.33335470540850
N           -1.17406305240987        1.26571519055386        0.68341420568579
C           -2.21063438336902        0.63242469174892        1.34351219092549
C           -2.19832733377185       -0.55780149765624        2.05677118784453
C           -3.38719869754531       -0.98227159697892        2.62099756920057
C           -4.55166315464958       -0.22900363297446        2.50588580314841
C           -4.55201829355209        0.99158701731914        1.85261653069494
C           -3.37216898690467        1.43478410774292        1.27706693164761
C           -2.99829676683021        2.62902410683270        0.56664613128447
C           -3.69167789085701        3.76363721841663        0.17733155470449
C           -3.01695957474581        4.73988184979603       -0.53452502413005
C           -1.67272537273988        4.58766464609935       -0.86820528590509
C           -0.96057157840610        3.46457182318856       -0.49304834133619
C           -1.62852594291822        2.48843482002991        0.23577384583104
C            0.01912388518116       -0.64768245543520       -0.26906556764940
N           -1.19539861250355       -1.22578818436922       -0.63120402906021
C           -1.66299124275685       -2.44862905702702       -0.19710343289774
C           -1.00764095756593       -3.43415058918304        0.53156575942193
C           -1.72837822612809       -4.55757033851681        0.88809417881219
C           -3.06971047559655       -4.70113988388084        0.53615227984336
C           -3.73251330052364       -3.71552652558843       -0.17420757357095
C           -3.03114512190948       -2.57937679986902       -0.54445785685454
C           -3.39130595369776       -1.37664935815899       -1.24528249558286
C           -4.56331329773126       -0.91741154334885       -1.82427998506309
C           -4.54718442919587        0.30687366591860       -2.47078081602248
C           -3.37368828150820        1.04871182076302       -2.57774518934501
C           -2.19335875564479        0.61048401920254       -2.00696618672377
C           -2.22129748087632       -0.58285021246183       -1.29834162563658
C            1.23539191965297       -1.29991597474844       -0.53345223760414
C            2.40129011850198       -0.65652899941086       -0.26137639018898
S            4.06642380544193       -1.16146463021515       -0.53556987849678
O            4.42730967958745       -1.11163766987474       -1.92446556857625
O            4.37579233274524       -2.37304838181159        0.16536791824018
H            5.88022562343594        2.43732258087007       -0.60816374679843
H            6.06031420567986        1.12663755826571       -1.78827866015359
H            7.47384594293099        1.72319867259458       -0.90016571670612
H            6.00576632056501        1.92915127359631        1.86596981778134
H            6.36092434434689        0.28522188648410        2.40962777013087
H            7.62545162107149        1.25227263735190        1.63066125044573
H            7.98037461080548       -0.59834829886897        0.00111156922566
H            6.65494711154041       -1.18144430782724       -1.01708207663482
H            6.67288022098339       -1.56971296315468        0.70075285810694
H            1.25390452656954        2.27810964571506        1.06359582019231
H           -1.28951092144839       -1.12686226420349        2.17825847352023
H           -3.40829958607487       -1.91433563926461        3.16474316676854
H           -5.46315019853099       -0.59562347020144        2.95281297171835
H           -5.44896310900815        1.58862417222489        1.79448851602176
H           -4.73682129212900        3.87725631847570        0.42054996518386
H           -3.53877480528822        5.63308549193586       -0.84310662211089
H           -1.17698785408312        5.36315189945165       -1.43197112148600
H            0.07808179505112        3.34929849417375       -0.76135593400925
H            0.02775625629822       -3.32506870964773        0.81555577255414
H           -1.24323679039824       -5.33949026298787        1.45207997982871
H           -3.59864838404021       -5.59500791304031        0.83037387274460
H           -4.77515125842325       -3.82339584332571       -0.43066770770860
H           -5.46670884584582       -1.50554754065083       -1.77491967763402
H           -5.45257329716637        0.68511955894136       -2.92040270047225
H           -3.38190970453102        1.98176725357024       -3.12005826750860
H           -1.27728353667363        1.16897813018244       -2.12304803152830
H            1.23891299303396       -2.27273709052848       -0.99978965470392
