69
 energy: -113.052975905889 gnorm: 0.000059311265 xtb: 6.7.1 (edcfbbe)
C            6.84927662814564        1.15679449050596        0.47576958954430
C            6.16500345831064       -0.09226213892959       -0.07453343247465
C            6.55941128317450       -1.31197791196143        0.76267828321259
C            6.54810331373920       -0.28632737767598       -1.54430531934635
N            4.70376473571904        0.08827649341059        0.01245798995586
C            3.81858232790854       -0.85725407611810       -0.41049898841407
O            4.09735330512822       -1.92975877157492       -0.90177150764636
C            2.42780043836701       -0.39022689764827       -0.18056678523019
C            1.28396737167860       -1.08814853827253       -0.52996539202478
C            0.03518519104507       -0.52956258413986       -0.26856625991549
N           -1.11899632329415       -1.20721842216797       -0.65750441721747
C           -2.20426184739562       -0.63682096632867       -1.30455394482778
C           -2.28265798498581        0.56973745082375       -1.98121036884219
C           -3.49627364722913        0.91096158071340       -2.54767446024845
C           -4.59525483808543        0.06038782807866       -2.47110011897465
C           -4.49960152809218       -1.17362912391860       -1.85773408985662
C           -3.29210867928942       -1.53425304634819       -1.27714941892659
C           -2.83201111880139       -2.71392357205267       -0.59613492688365
C           -3.44042112383071       -3.91358843329387       -0.25478151916952
C           -2.70379223626767       -4.85587677540067        0.43579946197742
C           -1.38150959252531       -4.60916088125290        0.79392677932192
C           -0.75528432503939       -3.42008647051374        0.46751820730593
C           -1.48648460579044       -2.47908132752340       -0.23940119155236
C           -0.05479155437330        0.72431186961138        0.38680992117550
N           -1.29280759701246        1.27296424906821        0.70847628776085
C           -1.76783554449771        2.50221531182864        0.27018227312731
C           -1.10341448624859        3.51471493048493       -0.40320305951241
C           -1.83261256998269        4.63297531268970       -0.76488578290093
C           -3.18954688825653        4.74060108782081       -0.47415485429797
C           -3.85843580052634        3.72555184204666        0.18156678627753
C           -3.14678294862883        2.59507179711882        0.55744770405152
C           -3.51641667830939        1.37191111626234        1.21704385874213
C           -4.70756480844156        0.88787171573356        1.73845738665198
C           -4.70588072304604       -0.35089575109389        2.34991280460624
C           -3.53061644626706       -1.08442001637131        2.48247880951544
C           -2.33195421396631       -0.61892539175503        1.97557141942099
C           -2.34494739054778        0.59108277620547        1.30098057508240
C            1.11146833839785        1.42195445786912        0.71295395103493
C            2.32564452479904        0.85276699693061        0.41902631803445
S            3.96891787883482        1.47063630852652        0.69372728218350
O            4.27537194281520        1.55388681304635        2.08717968376820
O            4.22912550245075        2.61784093956958       -0.11828634719946
H            6.57959134310367        1.31663932493829        1.51595956311380
H            6.55987689816348        2.03585797246228       -0.09334695921203
H            7.92735447134481        1.03229900238664        0.40722793743887
H            7.63775526414219       -1.44181499553143        0.73463061860083
H            6.24766684242819       -1.16976564659568        1.79511401299542
H            6.08730153755392       -2.20812288160345        0.36988846234367
H            6.07677172669999       -1.17987210833488       -1.94349634806703
H            7.62631133505920       -0.38935692995808       -1.62984594819724
H            6.22847730716694        0.57392739411942       -2.12822924471242
H            1.36650757038195       -2.03786686645237       -1.03575019480397
H           -1.42677542791489        1.22102829628459       -2.07286988978264
H           -3.58923104504569        1.85573467392583       -3.06164448525131
H           -5.52924966724086        0.36495689750117       -2.91865007301766
H           -5.34188941352657       -1.84775942129548       -1.83175062885770
H           -4.46941445348850       -4.09896903607363       -0.52201501653913
H           -3.15741012318262       -5.79674846795435        0.70893674252723
H           -0.83206127906830       -5.36069458742282        1.34081109702940
H            0.26615507173040       -3.23474820920592        0.76425284409432
H           -0.05502449852386        3.43657626362493       -0.65031487553299
H           -1.33720542769044        5.43767385314797       -1.28706227389685
H           -3.72407466975553        5.62957293168206       -0.77336995615141
H           -4.91345137607228        3.80218261250744        0.39507000681073
H           -5.61227185157955        1.47203577406028        1.66946470950900
H           -5.62446121525489       -0.75055863854498        2.75219416760283
H           -3.55118924407347       -2.03497165973473        2.99368465876114
H           -1.41933750506262       -1.17901964561247        2.11083253589716
H            1.05256908991074        2.37266620366644        1.21829634999943
