  69
       -113.05297278
 C          6.5127624072        1.6901468998       -0.6405088127
 C          6.1591616921        0.5026781183        0.2587822075
 C          6.4998781611        0.7995079648        1.7218580561
 C          6.9145298653       -0.7416183526       -0.2019983227
 N          4.7106573636        0.2460039471        0.1524987102
 C          3.7717304684        1.1648911192        0.5139186446
 O          3.9868487506        2.2655081243        0.9740049987
 C          2.4110018558        0.6268400700        0.2611762479
 C          1.2273422396        1.2732031797        0.5749539658
 C          0.0134425312        0.6482756534        0.3003623588
 N         -1.1798883275        1.2715090994        0.6609714551
 C         -2.2422313346        0.6573306220        1.3055800804
 C         -2.2686269364       -0.5429560256        1.9972618412
 C         -3.4695339264       -0.9352101010        2.5577129410
 C         -4.6074983183       -0.1397253869        2.4605419307
 C         -4.5660573746        1.0891584734        1.8309204297
 C         -3.3721169063        1.5002705821        1.2558144078
 C         -2.9635170388        2.6913826054        0.5620630491
 C         -3.6263338637        3.8547053250        0.1969750272
 C         -2.9300742831        4.8210763336       -0.5020846126
 C         -1.5940118498        4.6339082074       -0.8450223920
 C         -0.9135593804        3.4822505893       -0.4942732818
 C         -1.6047556138        2.5175413132        0.2209147001
 C         -0.0015564630       -0.6183788372       -0.3361905461
 N         -1.2047330436       -1.2328618913       -0.6704034653
 C         -1.6249467183       -2.4788765004       -0.2230295555
 C         -0.9216333102       -3.4491164460        0.4727076798
 C         -1.5998618579       -4.5981078783        0.8372586780
 C         -2.9451211074       -4.7766838389        0.5279095601
 C         -3.6536230633       -3.8035027488       -0.1493187849
 C         -2.9932880138       -2.6433612302       -0.5283884637
 C         -3.4136189774       -1.4475722273       -1.2075075658
 C         -4.6204090819       -1.0281658967       -1.7485864340
 C         -4.6716541762        0.2025643619       -2.3740093186
 C         -3.5317412306        0.9906719947       -2.5019828139
 C         -2.3181872843        0.5898002519       -1.9756111094
 C         -2.2808217268       -0.6111788973       -1.2859709213
 C          1.2042454123       -1.2619195304       -0.6285416095
 C          2.3826691392       -0.6288930694       -0.3196899987
 S          4.0600861792       -1.1734196752       -0.5386518609
 O          4.4162889204       -1.2535944548       -1.9205743993
 O          4.3435838358       -2.3017619807        0.2915505566
 H          5.9907205727        2.5830888051       -0.3079941923
 H          6.2284022827        1.4740893750       -1.6680492635
 H          7.5829024731        1.8738987758       -0.6017294043
 H          5.9769751233        1.6894131189        2.0599120670
 H          6.2105317352       -0.0407460387        2.3489576319
 H          7.5697226680        0.9611746802        1.8209866499
 H          7.9835270745       -0.5631857781       -0.1131590745
 H          6.6819866278       -0.9716639913       -1.2380087131
 H          6.6490218325       -1.6001654560        0.4087208823
 H          1.2525095451        2.2337667253        1.0661197505
 H         -1.3830527825       -1.1506033617        2.1056032785
 H         -3.5214047782       -1.8766217552        3.0836054618
 H         -5.5297208265       -0.4832977701        2.9042097959
 H         -5.4394963751        1.7215099426        1.7891674213
 H         -4.6656322181        3.9936621760        0.4522780327
 H         -3.4265565486        5.7341530185       -0.7942833694
 H         -1.0771029263        5.4025859504       -1.3997623780
 H          0.1186970911        3.3426108094       -0.7785435862
 H          0.1177368149       -3.3163590885        0.7342310572
 H         -1.0732072314       -5.3708793715        1.3768070224
 H         -3.4394338549       -5.6876609593        0.8302369571
 H         -4.7002237507       -3.9348427496       -0.3771089449
 H         -5.4962521892       -1.6552002848       -1.6838110244
 H         -5.6036308796        0.5525531590       -2.7914978642
 H         -3.5922270186        1.9333852412       -3.0243936148
 H         -1.4321984819        1.1918989260       -2.1072937799
 H          1.2027054165       -2.2220184688       -1.1193558385
