69
 energy: -113.052981318078 gnorm: 0.000030063878 xtb: 6.7.1 (edcfbbe)
C            6.51022795065725        1.68962335093595       -0.64725914537288
C            6.15941799243062        0.50252031809302        0.25368602487099
C            6.50461452969576        0.79984246878962        1.71560721115204
C            6.91343472301957       -0.74188478700656       -0.20912020332396
N            4.71063195621837        0.24574862330291        0.15192317557011
C            3.77247211801429        1.16361548220457        0.51800301596132
O            3.98865618063358        2.26389955003958        0.97836677372329
C            2.41113315781319        0.62522632643511        0.26908799473636
C            1.22790489216122        1.27148066616231        0.58484313450547
C            0.01334194637228        0.64791619922061        0.30959655506125
N           -1.17966808620853        1.27254772178298        0.66882929001361
C           -2.24614426632096        0.65802698506577        1.30656112048992
C           -2.27676349939710       -0.54250156186389        1.99764665103401
C           -3.48131898804241       -0.93541375074822        2.54974243083740
C           -4.61884558780513       -0.14029826807830        2.44520464752487
C           -4.57332985053027        1.08926030868453        1.81729552733830
C           -3.37563747164661        1.50103942685488        1.25059954314996
C           -2.96242676683609        2.69318324357009        0.56127209867036
C           -3.62270513108749        3.85747590972234        0.19473322522948
C           -2.92165900068076        4.82576737023057       -0.49692434854784
C           -1.58342419465177        4.63922685779788       -0.83143999119647
C           -0.90559573143402        3.48623933539143       -0.47965546728562
C           -1.60154493672901        2.51972314403341        0.22844984869245
C           -0.00238916904959       -0.61808936736613       -0.32826710654844
N           -1.20537020554044       -1.23226399164069       -0.66383369359137
C           -1.62509624358679       -2.47891411403297       -0.21792462786278
C           -0.92231206049468       -3.44827102528323        0.47959923991949
C           -1.60005861241124       -4.59805840892497        0.84256328860271
C           -2.94429366728972       -4.77832810866653        0.52971400127927
C           -3.65220163199074       -3.80617783002900       -0.14962085819127
C           -2.99237476081987       -2.64517207775436       -0.52699282948704
C           -3.41225981597168       -1.44993112357170       -1.20736209710600
C           -4.61783027345436       -1.03264859359516       -1.75274819234155
C           -4.66895144002484        0.19791327689999       -2.37846762604900
C           -3.53008514525208        0.98822003408781       -2.50193279537031
C           -2.31765894921715        0.58950076165503       -1.97134782399536
C           -2.28049546480209       -0.61172636804656       -1.28210352014436
C            1.20292879552293       -1.26198866212308       -0.62167536687750
C            2.38181109061702       -0.62999841910172       -0.31277075755796
S            4.05866535941473       -1.17242823830202       -0.54032975266739
O            4.40758132097702       -1.24671858729983       -1.92452384600641
O            4.34816789578258       -2.30325280407865        0.28429742273970
H            5.98584815779919        2.58177653351947       -0.31617248533833
H            6.22666222132119        1.47134241046090       -1.67457745767634
H            7.57989131236688        1.87617601241692       -0.60840481587472
H            5.98493048251016        1.69141335119629        2.05427558953921
H            6.21479379139192       -0.03911380486866        2.34428927381247
H            7.57511202707474        0.95872059612761        1.81176434089765
H            7.98271755664501       -0.56238767113583       -0.12624991551775
H            6.67560078758482       -0.97361284076337       -1.24352716317647
H            6.65194276445912       -1.59978634247022        0.40414290762526
H            1.25395496323569        2.23153266285589        1.07699139046598
H           -1.39189190604872       -1.15016498421527        2.11106213598064
H           -3.53658464936812       -1.87720024001689        3.07451586337746
H           -5.54399328564565       -0.48440976471833        2.88234684067885
H           -5.44676902561713        1.72124533523719        1.76962979880267
H           -4.66359577708168        3.99594255052554        0.44369660791683
H           -3.41592234084571        5.73994811466660       -0.78948249964943
H           -1.06240289368088        5.40964820384307       -1.37985901355523
H            0.12821708327785        3.34712155931112       -0.75823949546828
H            0.11611033739873       -3.31400849973651        0.74402317664756
H           -1.07372724520798       -5.37025829856485        1.38322585406403
H           -3.43806726367236       -5.69009656155200        0.83035920084340
H           -4.69799147462079       -3.93897173327546       -0.38029422780166
H           -5.49290214943639       -1.66106077870714       -1.69068481171056
H           -5.60010692666977        0.54636080689025       -2.79904398898869
H           -3.59037261880648        1.93083167343160       -3.02457494406461
H           -1.43239406542994        1.19340254131958       -2.09961224340048
H            1.20057166345687       -2.22145350401815       -1.11369962713349
