69
 energy: -112.962873099530 gnorm: 0.000048135336 xtb: 6.7.1 (edcfbbe)
C            6.40553450730166        1.52581636534051       -0.82449730002095
C            6.14094488710431        0.47649503498296        0.26189261597977
C            6.56504036785427        0.99477679431249        1.63775931031623
C            6.91113501354002       -0.80510772505446       -0.06181080415573
N            4.71066666901798        0.16720996270206        0.28354837745106
C            3.75190806659745        1.12670694774898        0.60765815790813
O            4.02429596077871        2.24903486361786        1.05218833454027
C            2.44279882642422        0.64056596633592        0.32774325739893
C            1.22867331270287        1.29784280283297        0.60436536206309
C            0.04165278937045        0.66687985209566        0.33731427037798
N           -1.17530653463143        1.25070630436105        0.70067886401690
C           -2.20863692959498        0.60191932478704        1.35086307649361
C           -2.19054249249633       -0.60064896399888        2.04294401258886
C           -3.37699539308679       -1.03980701234331        2.60107876755416
C           -4.54459243950968       -0.28940013583681        2.50050028409505
C           -4.55075513997788        0.94245293300781        1.86870279344217
C           -3.37342019740696        1.40057767640527        1.29973399850444
C           -3.00507566095586        2.60843750518719        0.60971729793779
C           -3.70348172903267        3.74660287977818        0.24040947126041
C           -3.03343762592719        4.73764047516964       -0.45522258474377
C           -1.68876646296940        4.59695656604397       -0.79226188069844
C           -0.97159537705293        3.47063134020499       -0.43697196357392
C           -1.63505094087791        2.47913194336818        0.27506643522928
C            0.01732842426925       -0.64242338428808       -0.29022749168128
N           -1.19840579394897       -1.21080650110851       -0.66399950379531
C           -1.67148593152981       -2.43857908645476       -0.25069172364167
C           -1.02027318029115       -3.43943855351505        0.46059404292069
C           -1.74639791824251       -4.56483097203774        0.79940542681776
C           -3.08884841549674       -4.69563998396904        0.44674111362810
C           -3.74724277413993       -3.69532725134776       -0.24697248253849
C           -3.04046718989446       -2.55690563558868       -0.59935027954596
C           -3.39521693094954       -1.34087397528353       -1.27976783936345
C           -4.56512023481910       -0.86627781301605       -1.85054044932637
C           -4.54328026628124        0.36876937321697       -2.47613186400201
C           -3.36642914707187        1.10687552893424       -2.57057758098857
C           -2.18809518613330        0.65348994920016       -2.00745937567197
C           -2.22156459052397       -0.55181075223260       -1.31967311062355
C            1.23284807428260       -1.29070780755098       -0.56662778893857
C            2.39921119642924       -0.65306699958194       -0.28282682849397
S            4.06384092549082       -1.15420111284778       -0.56638773088364
O            4.42373727681836       -1.08180046546086       -1.95455598930389
O            4.37321582810528       -2.37726393296536        0.11428870211222
H            5.87739703292541        2.44514695419913       -0.58243103369622
H            6.05341427062389        1.15398941560859       -1.78447048224442
H            7.46981512952352        1.73524554542766       -0.89086545821677
H            6.00736485478827        1.89558445493045        1.88296563841997
H            6.36586380634702        0.24327125648870        2.39808280132193
H            7.62711875582962        1.22460539038324        1.63182510510585
H            7.97857912754078       -0.60035182514759       -0.02665080882289
H            6.65195242060468       -1.16608185942194       -1.05305781661937
H            6.67179634590901       -1.58324221245266        0.65801225794066
H            1.25392514863772        2.25773091747588        1.09602869892304
H           -1.27917756955091       -1.16795536501419        2.15308444960247
H           -3.39365610872018       -1.98140776026941        3.12829358068206
H           -5.45403737912492       -0.66755911794403        2.94194609802808
H           -5.45025718434210        1.53664355501398        1.82198567730460
H           -4.74887487804577        3.85168145846578        0.48639389709502
H           -3.55930831361728        5.63370745450885       -0.74824717950920
H           -1.19676298223182        5.38419604728793       -1.34286424843135
H            0.06745334339408        3.36437304908380       -0.70749278744576
H            0.01603625112462       -3.34026413212742        0.74489724611823
H           -1.26474256899578       -5.35839096278497        1.34996427938829
H           -3.62217770753843       -5.59132494949891        0.72718982324332
H           -4.79064684797206       -3.79371183423272       -0.50413009755643
H           -5.47134011515304       -1.45079135381249       -1.81087727814240
H           -5.44694045000601        0.75888121215278       -2.91904384253918
H           -3.37040729510757        2.04918668530371       -3.09669091451430
H           -1.26937838016268        1.20961437012086       -2.11371535783987
H            1.23572681180476       -2.25496699664054       -1.05040992356245
