57
 energy: -102.583588596816 gnorm: 0.000043769423 xtb: 6.7.1 (edcfbbe)
O            5.45705513492998        2.31435975406426        0.55947956369978
C            5.90840526051239        1.23250132623111        0.24215210842640
C            7.30729688760795        1.10118720314533       -0.23864017242658
C            7.94106531173504        2.25017772130873       -0.71882355146941
C            9.23354571273292        2.19039094104224       -1.20438875713094
C            9.91925207576977        0.98455239125941       -1.21782910934394
C            9.30725650540886       -0.15988918300236       -0.73066934525536
C            8.01455526686807       -0.09516685941537       -0.25149552724855
S            7.29073220825660       -1.56298940900127        0.47201022674135
O            7.68489397874014       -2.71992987201891       -0.28370935366821
O            7.58290621622722       -1.55349734461789        1.88018040867008
C            5.53886911576507       -1.27899436031856        0.26807275999895
C            4.68193572235269       -2.36135329679820        0.23839103454240
C            3.31500640563139       -2.16108729317181        0.17242266791537
C            2.78908075076234       -0.86719816316648        0.15349278882772
C            1.33916127142667       -0.64449740306054        0.10837978891258
C            0.51047980161949       -1.46401996829284       -0.65737170707456
C           -0.85114120042824       -1.25323893362164       -0.70178232268104
C           -1.43029080026194       -0.21989168198028        0.03517066544166
N           -2.81348831765624       -0.00914250095786       -0.00041001586797
C           -3.68393023266448       -1.10148812141126       -0.04881247296085
C           -3.38595583695437       -2.27413443061493        0.64780154110375
C           -4.24067837305857       -3.35644316775674        0.59814959761896
C           -5.40669369236920       -3.27086733422362       -0.14506966029132
Br          -6.59055780331647       -4.76219581192332       -0.21154519989345
C           -5.72297286682485       -2.11554239719485       -0.84106399342990
C           -4.86209402698726       -1.03783544869692       -0.79505079554648
C           -3.32091996566727        1.29328231252408        0.01577760639799
C           -2.65471034832944        2.31957902770853       -0.65639167656387
C           -3.15080770155259        3.60724952799626       -0.63941362294481
C           -4.32416172535360        3.87684616369100        0.04600663083203
Br          -5.01492464955834        5.65219477819645        0.06493122527126
C           -5.00202232790628        2.87260026328044        0.71771608794768
C           -4.49880138634562        1.58755933035437        0.70479254862788
C           -0.60681374086757        0.59960351495823        0.80777813165497
C            0.75559177089067        0.39284389900652        0.83569979245024
C            3.66851458147972        0.21096318430418        0.18498155225926
C            5.04825779646559        0.02130390675326        0.23756401535399
H            7.39357670409485        3.18077726493993       -0.70036753859522
H            9.71015035327848        3.08630370174659       -1.57258383957381
H           10.92777686051496        0.93683631695988       -1.59909457055849
H            9.81184504314113       -1.11321184011191       -0.71713045926152
H            5.10711691978871       -3.35232188006015        0.26805460598207
H            2.64878560914013       -3.01029068344729        0.16416981482086
H            0.94185926305692       -2.25450044991559       -1.25278255001025
H           -1.47690410437043       -1.88473514163505       -1.31490331703510
H           -2.48156440261000       -2.33138524342358        1.23435885449067
H           -4.00771516244389       -4.25908289368441        1.14132624928057
H           -6.63070156774182       -2.06228634020379       -1.42177128572110
H           -5.09876696352391       -0.13971993508258       -1.34531356911901
H           -1.74644061416477        2.10193444714759       -1.19760625509414
H           -2.63399590360688        4.39629045177218       -1.16319840826769
H           -5.91108606604726        3.09542732823237        1.25434557990713
H           -5.01721424551567        0.80427196226588        1.23688279080227
H           -1.04544436371097        1.39454677951214        1.39233992603458
H            1.37370222204829        1.02268241468003        1.45692670069452
H            3.29793811400203        1.22481739767987        0.15047726604797
