57
 energy: -102.510007744865 gnorm: 0.000044135702 xtb: 6.7.1 (edcfbbe)
O            5.30794536552050        2.35536190692222        0.05370752117532
C            5.84746984456909        1.21670672793505        0.00595476303937
C            7.27158089492102        1.08821927964267       -0.24623219850684
C            7.97409500693999        2.26312742210262       -0.59625139292347
C            9.30466488253120        2.21193586932674       -0.92886275851379
C            9.99740342948398        1.00308672642016       -0.92833516557219
C            9.33439599692298       -0.15568493044708       -0.56120756315556
C            7.99869802198180       -0.09923580675794       -0.22036029497897
S            7.25890992716785       -1.59667174292444        0.40909892134298
O            7.67482039455340       -2.72715474955978       -0.37724690454363
O            7.50920745692018       -1.66021632629895        1.82599598939718
C            5.52169948682208       -1.28994671675458        0.16106005781727
C            4.67750138970609       -2.38146982434366        0.14347969656560
C            3.30852480562187       -2.19843602112040        0.11069746345959
C            2.78109421132748       -0.89555058517375        0.11529835595723
C            1.33213422708958       -0.67105167451653        0.09401373813272
C            0.49175155780234       -1.47815059790116       -0.67481843764041
C           -0.86912018275643       -1.26391947357480       -0.70163373814084
C           -1.43423424529084       -0.23177293737692        0.04950771513042
N           -2.81704110915863       -0.01037851494127        0.02409828918334
C           -3.69259700809480       -1.09579017396192       -0.02121007202779
C           -3.39077323198509       -2.27503422536724        0.66507324228109
C           -4.25124290872513       -3.35199166389530        0.61875182253790
C           -5.42492251169408       -3.25815098464496       -0.11385464769140
Br          -6.61456604102677       -4.74113174627591       -0.17674283327466
C           -5.74221775562491       -2.09683795263135       -0.80201270567456
C           -4.87846797218274       -1.02235374952678       -0.75667566043097
C           -3.31124677352221        1.29442670790336        0.03900454404609
C           -2.62592251953854        2.31736756328523       -0.62184420771497
C           -3.11048006318807        3.60864097245489       -0.60615746149923
C           -4.28871346735004        3.88851464852557        0.06944557446642
Br          -4.96265832973790        5.66693415949072        0.08705476619688
C           -4.98268504649293        2.88757685819441        0.73247575298327
C           -4.49410891303956        1.59777250250889        0.71839150316684
C           -0.60092850638582        0.57754182262096        0.82408218933500
C            0.75935161609562        0.36168068452194        0.83950344630160
C            3.63881808354184        0.18697934277366        0.11691729290802
C            5.03905299639833        0.01959623824986        0.10842635366582
H            7.41848737231872        3.18916651151191       -0.60070857034605
H            9.81813716403895        3.12314263711184       -1.19892849927418
H           11.04130402008828        0.96729197521985       -1.19708577783143
H            9.83239543452939       -1.11184833009561       -0.52553915089554
H            5.11708743074819       -3.36605772640353        0.17448480087116
H            2.64930281830275       -3.05160152350535        0.12742485605985
H            0.91600599367999       -2.26325597462331       -1.28153655440020
H           -1.50430012409193       -1.88349853351684       -1.31744555344821
H           -2.48207403628696       -2.33767999757226        1.24407454966452
H           -4.01779101709925       -4.25817891904347        1.15544495678007
H           -6.65364079244363       -2.03821356357380       -1.37613253215742
H           -5.11375757637716       -0.12214277107838       -1.30393747881609
H           -1.71631702746549        2.09190870361643       -1.15715631510436
H           -2.58136152291390        4.39396015368054       -1.12283018547835
H           -5.89309261219449        3.11860827880006        1.26306236257285
H           -5.02257194552805        0.81891711985533        1.24695098713796
H           -1.03245017921917        1.36540528652825        1.42355788082001
H            1.38850577126441        0.98060589971746        1.45997402474159
H            3.26635610469958        1.20020743059018        0.08121987171131
