57
 energy: -102.583586205416 gnorm: 0.000118639909 xtb: 6.7.1 (edcfbbe)
O            4.44264996496100        2.14352793963616        0.85269983572121
C            4.86823823387531        1.06107510977725        0.50312248732108
C            6.27897437445249        0.90183041277817        0.06722994289209
C            6.97056947425843        2.04897543295642       -0.33076406251328
C            8.27847315005103        1.96611602858498       -0.76932776887362
C            8.92242040513010        0.73831223261457       -0.81720675238188
C            8.25232104863370       -0.40551533289337       -0.41207847669426
C            6.94464065989650       -0.31733304739865        0.02046770179759
S            6.14448494988875       -1.79216315031547        0.64159681841003
O            6.52413300716220       -2.92303673600834       -0.15961812081190
O            6.38740680941432       -1.86475018684529        2.05736051363101
C            4.41178070385145       -1.43428987484683        0.39552124769651
C            3.51947871787876       -2.48235556373005        0.28550356543776
C            2.16298970268956       -2.23019563703180        0.18922327804303
C            1.68277692287569       -0.91890642004237        0.22104465180607
C            0.24318020890572       -0.64270797659774        0.14808267582445
C           -0.59071597897958       -1.39189792469342       -0.68135567420532
C           -1.94267627886956       -1.13138662921374       -0.75048857049873
C           -2.50739606350939       -0.11812853346148        0.02460422250818
N           -3.88133512685939        0.14167806438712       -0.03597087238050
C           -4.78554541392053       -0.91628298950438       -0.16496420031949
C           -4.54652260420511       -2.13281061273156        0.47693837805909
C           -5.43525092618505       -3.18069739076519        0.34837414232802
C           -6.57644451757281       -3.01651494048400       -0.41975038093172
Br          -7.80771697851291       -4.45996512439882       -0.59424783926089
C           -6.83410807364996       -1.81679101076938       -1.06280445661256
C           -5.93929544425532       -0.77352677957098       -0.93791187734283
C           -4.34672100356494        1.45762528644020        0.03925358445508
C           -3.62885011320186        2.49628579647883       -0.55637374816912
C           -4.08311152253519        3.79718992387549       -0.48011532127303
C           -5.26605277753228        4.06824606234923        0.18802184949537
Br          -5.89877624509217        5.86235258543521        0.28899948022207
C           -5.99519382832733        3.05194361086646        0.78355950217748
C           -5.53376880243256        1.75324228568389        0.71183284300251
C           -1.67883041897367        0.63086698396953        0.86075121798600
C           -0.32542351254676        0.37544373221629        0.91337511188432
C            2.59746858109922        0.12413419420618        0.33137514921845
C            3.96771811449966       -0.11713264895160        0.41461622653243
H            6.45534455286414        2.99695810451149       -0.28630442055473
H            8.79990407345836        2.86106776058845       -1.07355456926177
H            9.94319540256591        0.67272914195540       -1.16144476367378
H            8.72260232041276       -1.37620833193253       -0.42735781187488
H            3.90928968709154       -3.48818596566522        0.27785706720650
H            1.46857525855244       -3.05348945931233        0.11804006987527
H           -0.16964523540798       -2.16528829234709       -1.30588740043698
H           -2.57179691456706       -1.70794832667837       -1.41235473115023
H           -3.66134541949717       -2.25152240402529        1.08326288726027
H           -5.24799133321964       -4.11755333102434        0.84968727559920
H           -7.72288505889826       -1.70223603394305       -1.66362998595111
H           -6.13017397539898        0.15932784193690       -1.44661499478347
H           -2.71313521986658        2.27816580148174       -1.08468418850802
H           -3.52621155049058        4.59598376006663       -0.94467816212535
H           -6.91159494097435        3.27544185754436        1.30727339450712
H           -6.09244157656150        0.95989040814953        1.18499461500258
H           -2.10663422152740        1.40912672546186        1.47502664712331
H            0.29582956431058        0.95019091718800        1.58300452103667
H            2.26314618834010        1.15109265403588        0.33678524650849
