  48
  -80.9767160400000       0.251372869782712      !
 N          1.9807066984       -6.4520928951       -0.0739575969
 C          1.5051626823       -5.4096549372       -0.0585524453
 C          0.9190000702       -4.1224795306       -0.0404922580
 C          1.1419741990       -3.2710124987        1.0424609097
 C          0.5688533376       -2.0159747115        1.0581413784
 C         -0.2304462889       -1.6037007506       -0.0053340584
 N         -0.7819914620       -0.3121606332       -0.0007810618
 C         -0.0564107370        0.8633549651       -0.0106291230
 C          1.3930842725        0.9588269354       -0.0307610104
 C          2.2145924105        0.0422140380       -0.6859703312
 C          3.5874782337        0.1989739403       -0.6747263283
 C          4.1439612880        1.2814271652       -0.0149778617
 Br         6.0366164189        1.4881248046        0.0096679122
 C          3.3460337185        2.2213810741        0.6179154714
 C          1.9766844907        2.0574887562        0.6046961491
 N         -0.8323144989        1.9166350973       -0.0161358692
 C         -2.1068356862        1.4494513603       -0.0153099586
 C         -3.3118824383        2.2049891314       -0.0599857066
 C         -3.2887017129        3.6017956005       -0.1240897073
 C         -4.4617530511        4.3102473348       -0.2005858617
 C         -5.6748290534        3.6249278930       -0.2176482040
 C         -5.7087078364        2.2516437538       -0.1495315010
 C         -4.5320160732        1.4920073041       -0.0612498129
 C         -4.5339010578        0.0431225646        0.0484875653
 C         -5.7294639718       -0.6845463106        0.1317112504
 C         -5.7440516230       -2.0508122529        0.2831931945
 C         -4.5484897591       -2.7552723324        0.3786100118
 C         -3.3551626793       -2.0816108942        0.2927496669
 C         -3.3177395933       -0.6924454164        0.1060203996
 C         -2.1106413257        0.0560523246        0.0072628672
 C         -0.4513117069       -2.4528448411       -1.0896777084
 C          0.1186491617       -3.7083613783       -1.1074093798
 H          1.7601411501       -3.6004448527        1.8637741809
 H          0.7340815875       -1.3470446480        1.8892554988
 H          1.7907746018       -0.7857904538       -1.2327310953
 H          4.2208551958       -0.5121925215       -1.1823752199
 H          3.7937916524        3.0684809459        1.1140918775
 H          1.3329616922        2.7775592023        1.0840440768
 H         -2.3276423346        4.0919416912       -0.1187703302
 H         -4.4497494046        5.3887106564       -0.2524050048
 H         -6.6004650948        4.1778874553       -0.2851358097
 H         -6.6711761897        1.7659282064       -0.1692032467
 H         -6.6745716654       -0.1684607103        0.0871379356
 H         -6.6854051944       -2.5763259421        0.3435733334
 H         -4.5569412251       -3.8250623393        0.5248117452
 H         -2.4323480063       -2.6311815679        0.3907285045
 H         -1.0721755202       -2.1187174887       -1.9078102546
 H         -0.0466579653       -4.3725255968       -1.9423471764
  48
  -80.9767126500000       0.250472740258472      !
 N          1.9940783897       -6.4455970215        0.1762491447
 C          1.5192024362       -5.4032073980        0.1451092397
 C          0.9294028224       -4.1181627110        0.1104234876
 C          0.1580587363       -3.6800819496        1.1893677408
 C         -0.4161571934       -2.4269399062        1.1577298495
 C         -0.2292371888       -1.6038660680        0.0470482402
 N         -0.7837650197       -0.3140236854        0.0250638420
 C         -0.0585885496        0.8603885048       -0.0339520159
 C          1.3909863014        0.9547206971       -0.0599144563
 C          2.2288558529        0.0665731599        0.6135236143
 C          3.6008288546        0.2233097888        0.5636645838
 C          4.1401037240        1.2771787523       -0.1543450007
 Br         6.0312630187        1.4853334812       -0.2289245904
 C          3.3262821762        2.1884590543       -0.8085722990
 C          1.9577395237        2.0250530026       -0.7558330703
 N         -0.8336161096        1.9141246441       -0.0387709825
 C         -2.1072895546        1.4485905368        0.0244992013
 C         -3.3092899697        2.2074161401        0.0886920488
 C         -3.2831872558        3.6056376409        0.0948151318
 C         -4.4516951998        4.3186781640        0.1939123059
 C         -5.6627795424        3.6367257481        0.2927145993
 C         -5.6997676551        2.2618815857        0.2812347050
 C         -4.5282058019        1.4972465971        0.1711783238
 C         -4.5348021670        0.0452578563        0.1180579292
 C         -5.7328830102       -0.6830672293        0.1182282870
 C         -5.7543744311       -2.0540521553        0.0194549794
 C         -4.5645548873       -2.7634097044       -0.1063940999
 C         -3.3686089717       -2.0889570472       -0.1014574946
 C         -3.3224891898       -0.6939931003        0.0330722894
 C         -2.1119259874        0.0552967365        0.0534365852
 C          0.5414163660       -2.0398716907       -1.0278853996
 C          1.1192229963       -3.2926161977       -0.9982641176
 H          0.0192633038       -4.3243349123        2.0444866686
 H         -1.0134480181       -2.0743157535        1.9853936188
 H          1.8186151814       -0.7373871246        1.2051720982
 H          4.2469530405       -0.4648496474        1.0869132950
 H          3.7611577589        3.0139639761       -1.3503337551
 H          1.3021311756        2.7241348125       -1.2497243340
 H         -2.3232847769        4.0933881629        0.0270579626
 H         -4.4374315099        5.3983328277        0.2006616919
 H         -6.5844275762        4.1936883808        0.3796569974
 H         -6.6604571702        1.7791140009        0.3637686832
 H         -6.6748348014       -0.1640318714        0.1880944011
 H         -6.6973864070       -2.5800496254        0.0238956055
 H         -4.5798547800       -3.8378637159       -0.2125335386
 H         -2.4513612110       -2.6430642553       -0.2233018591
 H          0.6803698012       -1.3913426491       -1.8795174014
 H          1.7151038135       -3.6395821881       -1.8287001764
  48
  -80.9767076500000       0.249150995192664      !
 N          1.9693445456       -6.4565557820       -0.0840515407
 C          1.4991405831       -5.4119440754       -0.0595213746
 C          0.9151451526       -4.1239149293       -0.0323812384
 C          1.1535104589       -3.2727005096        1.0474603375
 C          0.5823579608       -2.0168237509        1.0707344558
 C         -0.2300573835       -1.6033285074        0.0176725744
 N         -0.7803846522       -0.3116413282        0.0287354516
 C         -0.0551384665        0.8641752528        0.0203954090
 C          1.3942860896        0.9593630829       -0.0099770144
 C          1.9852136848        2.0551725234        0.6234634620
 C          3.3546476623        2.2197524018        0.6198519356
 C          4.1449927497        1.2835607691       -0.0280277583
 Br         6.0375226522        1.4925031323       -0.0286025202
 C          3.5807754222        0.2034518186       -0.6852427939
 C          2.2080078434        0.0460385076       -0.6795276000
 N         -0.8312247369        1.9172566582        0.0154192162
 C         -2.1057903799        1.4496720881        0.0120439623
 C         -3.3111854432        2.2041481747       -0.0424513863
 C         -3.2893062341        3.6013328571       -0.0979619115
 C         -4.4621134484        4.3084541457       -0.1896217324
 C         -5.6736031044        3.6214180213       -0.2320901502
 C         -5.7064157655        2.2477503504       -0.1715651494
 C         -4.5302442698        1.4895237447       -0.0662087907
 C         -4.5323169633        0.0404705560        0.0411189324
 C         -5.7279856147       -0.6893160885        0.1016786753
 C         -5.7428949316       -2.0551443628        0.2570753466
 C         -4.5482227753       -2.7565951399        0.3821633784
 C         -3.3546626408       -2.0811684613        0.3161051126
 C         -3.3163543754       -0.6931701088        0.1209595397
 C         -2.1090820290        0.0563413537        0.0328464602
 C         -0.4664756838       -2.4523982660       -1.0635511569
 C          0.1010886434       -3.7087576092       -1.0885966682
 H          1.7818366617       -3.6029211560        1.8607288321
 H          0.7593930623       -1.3482841848        1.8997450751
 H          1.3475597095        2.7730222932        1.1142839615
 H          3.8083079839        3.0650076702        1.1140076761
 H          4.2078425942       -0.5046461861       -1.2048098530
 H          1.7775901616       -0.7791514212       -1.2254606637
 H         -2.3292986833        4.0930112224       -0.0741562774
 H         -4.4510524975        5.3872454578       -0.2343683559
 H         -6.5988021136        4.1733014040       -0.3131445572
 H         -6.6675792961        1.7605767814       -0.2103800851
 H         -6.6730374520       -0.1754036996        0.0356440842
 H         -6.6842013374       -2.5825844303        0.2984874162
 H         -4.5577031269       -3.8254654434        0.5349395720
 H         -2.4328161038       -2.6279072629        0.4369896049
 H         -1.0975670418       -2.1173171143       -1.8734294636
 H         -0.0763183932       -4.3727507862       -1.9211665316
  48
  -80.9767070900000       0.249003394766152      !
 N          1.9751673274       -6.4208461655        0.5516892993
 C          1.5084209400       -5.3786423365        0.4598930843
 C          0.9265172276       -4.0940468987        0.3513491361
 C          0.1462028067       -3.5956592877        1.3971316189
 C         -0.4236585023       -2.3445695168        1.2910324348
 C         -0.2236512021       -1.5840465317        0.1389088709
 N         -0.7795222683       -0.2985053434        0.0422691631
 C         -0.0589042704        0.8745032084       -0.0717103138
 C          1.3908521621        0.9653878189       -0.1135768861
 C          1.9572265635        1.9811462390       -0.8868091652
 C          3.3265470585        2.1298919892       -0.9635671283
 C          4.1405044509        1.2601219080       -0.2552050300
 Br         6.0323450254        1.4462922144       -0.3651029963
 C          3.6014091970        0.2634977499        0.5406264765
 C          2.2290537147        0.1206134211        0.6133734148
 N         -0.8371502204        1.9244813928       -0.1191471107
 C         -2.1094075319        1.4579796574       -0.0289811361
 C         -3.3149599956        2.2130467324        0.0135298157
 C         -3.2964949514        3.6107832707       -0.0290647299
 C         -4.4679768472        4.3210614476        0.0547926572
 C         -5.6747474965        3.6372174888        0.1872000070
 C         -5.7045473872        2.2626453812        0.2230075509
 C         -4.5299830633        1.5004774227        0.1295007394
 C         -4.5308870809        0.0475192029        0.1244830007
 C         -5.7255629889       -0.6860306201        0.1448906369
 C         -5.7402086609       -2.0595678607        0.0886840572
 C         -4.5468627563       -2.7669511012       -0.0121995559
 C         -3.3540561578       -2.0870698725       -0.0251760801
 C         -3.3152310581       -0.6884165310        0.0655019428
 C         -2.1086702974        0.0673376046        0.0592820085
 C          0.5572791888       -2.0793615839       -0.9026875535
 C          1.1307529320       -3.3301049339       -0.7985205768
 H         -0.0037560177       -4.1918752749        2.2845981189
 H         -1.0294533254       -1.9459343562        2.0914531663
 H          1.3019903269        2.6489370088       -1.4232509069
 H          3.7617728705        2.9111217539       -1.5672087921
 H          4.2481354328       -0.3917613275        1.1040760415
 H          1.8182394560       -0.6370591664        1.2628241823
 H         -2.3397459372        4.1009273266       -0.1200987284
 H         -4.4592861668        5.4004027012        0.0250043193
 H         -6.5984563507        4.1922906618        0.2626908607
 H         -6.6616202832        1.7777811330        0.3302248166
 H         -6.6702639769       -0.1697358376        0.1944239951
 H         -6.6807510964       -2.5896452723        0.1063389821
 H         -4.5567919702       -3.8441613109       -0.0857789933
 H         -2.4339547647       -2.6401785296       -0.1282444819
 H          0.7070345744       -1.4786354571       -1.7871078062
 H          1.7339389908       -3.7238047980       -1.6025420428
