  106
       -162.53178303
 C         -1.8500450001       -2.2629033319        0.0382436453
 C         -2.6319309224       -1.1679708092        0.0615176974
 C         -4.0943538661       -1.2498171450        0.0331510849
 C         -4.8369424705       -0.2504204983       -0.5982043181
 C         -6.2129823956       -0.3155974664       -0.6538957634
 C         -6.8878185620       -1.3882445180       -0.0755070883
 N         -8.2835132970       -1.4630177712       -0.1450392626
 C         -9.1402112017       -1.6867958261        0.9149902665
 C         -8.8569434201       -1.8378909667        2.2648521657
 C         -9.9180795489       -2.0252437122        3.1298898114
 C        -11.2336436527       -2.0538287864        2.6725705769
 C        -11.5235192164       -1.8794775510        1.3342124214
 C        -10.4737847859       -1.6896894815        0.4453052352
 C        -10.4085867860       -1.4618160805       -0.9711879629
 C        -11.3691984082       -1.3784835491       -1.9705415457
 C        -10.9546783111       -1.1707729740       -3.2708268238
 C         -9.6011752651       -1.0621585344       -3.5823456993
 C         -8.6271262644       -1.1408023905       -2.6054988839
 C         -9.0390495417       -1.3241124018       -1.2932266862
 C         -6.1575679732       -2.3839407363        0.5690017006
 C         -4.7810546809       -2.3111797151        0.6235451078
 C         -2.0363892704        0.1820386559        0.0588219691
 C         -1.0758339455        0.5209885082       -0.8919444490
 C         -0.4416428864        1.7435482750       -0.8451397982
 C         -0.7507345972        2.6528524606        0.1640436824
 N         -0.0334731617        3.8512622415        0.2607410254
 C          1.3436595634        3.9441950871        0.2815913790
 C          2.2960735392        2.9352326003        0.2479366406
 C          3.6260110153        3.3036984945        0.3134430330
 C          4.0066932878        4.6399610659        0.4176386387
 C          3.0626126796        5.6453885948        0.4748895105
 C          1.7186327283        5.3009377172        0.4121839095
 C          0.4986098720        6.0569290916        0.4679461088
 C          0.2175895276        7.4126642979        0.5744506586
 C         -1.1027048754        7.8159135000        0.5822264979
 C         -2.1366104547        6.8884923209        0.4719933639
 C         -1.8827894440        5.5346323014        0.3643579597
 C         -0.5583203546        5.1216309551        0.3777626681
 C         -1.7508997382        2.3451575071        1.0814170999
 C         -2.3940922814        1.1242079254        1.0187831571
 C         -0.3937630598       -2.2488738753        0.1054860512
 C          0.3499140606       -3.1100882356       -0.7016283840
 C          1.7288114507       -3.0589433196       -0.7109670236
 C          2.4148632647       -2.1551148709        0.0981220286
 C          3.8782753604       -2.0538846117        0.0489053078
 C          4.4981871688       -0.8062046561        0.0996380878
 C          5.8715798200       -0.6920778636        0.0379144501
 C          6.6631386552       -1.8313215244       -0.0809482498
 N          8.0567945682       -1.7191301942       -0.1562954778
 C          8.9677814856       -2.4268386171        0.6023307001
 C          8.7479899536       -3.3356974773        1.6275702212
 C          9.8521886650       -3.8855962747        2.2499542834
 C         11.1479536927       -3.5387445355        1.8735452199
 C         11.3729030770       -2.6165781723        0.8712977234
 C         10.2788587461       -2.0496137724        0.2310058194
 C         10.1419955531       -1.0680983947       -0.8082178462
 C         11.0546260623       -0.3515228475       -1.5710835514
 C         10.5763142339        0.5207029213       -2.5280940840
 C          9.2075444226        0.6718613943       -2.7390042140
 C          8.2802303710       -0.0302901800       -1.9932328449
 C          8.7542495995       -0.8909160484       -1.0133393230
 C          6.0537790653       -3.0824219110       -0.1289607054
 C          4.6793115621       -3.1885945563       -0.0630624897
 C          1.6736110731       -1.3369497854        0.9506470206
 C          0.2968271861       -1.3858594918        0.9589938365
 H         -2.3061098032       -3.2370484770       -0.0827685628
 H         -4.3229537618        0.5820128722       -1.0564089284
 H         -6.7765066326        0.4702164612       -1.1343278556
 H         -7.8423820407       -1.7994265895        2.6322785904
 H         -9.7229902392       -2.1488944740        4.1849179069
 H        -12.0349440786       -2.2055421034        3.3801472401
 H        -12.5437766527       -1.8844000289        0.9814206499
 H        -12.4168631300       -1.4802901013       -1.7310823653
 H        -11.6852980302       -1.1012992496       -4.0627279685
 H         -9.3058215646       -0.9166652574       -4.6109547822
 H         -7.5799976768       -1.0732834145       -2.8598681012
 H         -6.6764608802       -3.2202012174        1.0133462253
 H         -4.2297913213       -3.0826929606        1.1400875627
 H         -0.8263284698       -0.1857805178       -1.6690187271
 H          0.2987721375        2.0041961805       -1.5863636352
 H          2.0044084371        1.8971425859        0.1826733421
 H          4.3905541363        2.5408734309        0.2871536017
 H          5.0570160685        4.8862435755        0.4633428602
 H          3.3581503809        6.6790730392        0.5717630244
 H          1.0186251356        8.1328410633        0.6455904690
 H         -1.3426930647        8.8652148782        0.6664434994
 H         -3.1592025073        7.2358151970        0.4669413555
 H         -2.6894142647        4.8240556772        0.2628311415
 H         -1.9978075143        3.0525207873        1.8589592710
 H         -3.1546139320        0.8788922961        1.7462605939
 H         -0.1656642497       -3.8027072069       -1.3521320928
 H          2.2826521859       -3.7066729379       -1.3749732926
 H          3.8927274381        0.0845003870        0.1741632947
 H          6.3426423522        0.2781285122        0.0916605685
 H          7.7478661244       -3.5977529399        1.9389177464
 H          9.7071457984       -4.5971900486        3.0493203874
 H         11.9846337459       -3.9932988393        2.3826619291
 H         12.3765214920       -2.3349059222        0.5905485739
 H         12.1153474275       -0.4817821285       -1.4186045034
 H         11.2688396853        1.0894021771       -3.1304502139
 H          8.8628767607        1.3508772521       -3.5049439986
 H          7.2223101835        0.0806355196       -2.1780498512
 H          6.6641951579       -3.9670617188       -0.2327388055
 H          4.2199698233       -4.1657871791       -0.0879443248
 H          2.1871472969       -0.6690639634        1.6273102892
 H         -0.2555804141       -0.7561704691        1.6395350734
