  130
  -199.184215337100       0.566543224561037      !
 C          1.4876934424       -9.7009152612        1.6662899093
 C          0.8752592374       -8.7395077886        2.4520136196
 C          0.8901448502       -7.4126838333        2.0629460306
 C          1.5265483590       -7.0275360771        0.8865695656
 C          1.5278398353       -5.6114125346        0.4786756354
 C          0.3269245217       -4.9158050810        0.4564997874
 C          0.2627103806       -3.5878712300        0.0571911113
 C         -1.0341512505       -2.8908850500        0.0994911044
 C         -2.1528657026       -3.4472603770       -0.5160719432
 C         -3.3649390342       -2.7902776847       -0.4957582180
 C         -3.4992050408       -1.5648341090        0.1582352052
 C         -4.7963121515       -0.9073761639        0.1014646154
 N         -5.9289981449       -1.5648788100        0.1036287286
 C         -6.9093148152       -0.6277682112        0.0177217686
 C         -8.3173443313       -0.8319703195        0.0304762615
 C         -8.8638471065       -2.1138060278        0.1525528545
 C        -10.2245526167       -2.2857403100        0.2031687646
 C        -11.0579927915       -1.1709201647        0.1375710142
 C        -10.5317594378        0.0933145656        0.0098933566
 C         -9.1469107097        0.3094636927       -0.0578723825
 C         -8.5622184193        1.6271728085       -0.2377712417
 C         -9.3590704103        2.7653944099       -0.4264949997
 C         -8.8154912782        4.0073797862       -0.6542813068
 C         -7.4347590948        4.1621901652       -0.7261064933
 C         -6.6180078448        3.0748967565       -0.5367860484
 C         -7.1518818480        1.8066803980       -0.2659317526
 C         -6.3517267531        0.6474512125       -0.0593614984
 N         -4.9907316530        0.4558742208        0.0071552881
 C         -3.9632669424        1.4126871796        0.0601175549
 C         -3.9563002507        2.3807983670        1.0606913715
 C         -2.8932419480        3.2567516078        1.1650674984
 C         -1.8060771861        3.1514163975        0.3028922757
 C         -0.6066602567        3.9853412867        0.4704914539
 C          0.6305051297        3.3550909240        0.5741911899
 C          1.7884131903        4.0910590083        0.7042008742
 C          1.7392788409        5.4843346262        0.7021528648
 C          2.9407538933        6.2954103206        0.8028247980
 N          2.9691535024        7.4695660524        1.3745761850
 C          4.2684363574        7.8890833940        1.3240640631
 C          4.8576332645        9.0639150519        1.7803820140
 C          6.2116348700        9.2213432695        1.5770379987
 C          6.9758573332        8.2469042651        0.9303868503
 C          6.4136621081        7.0731939076        0.4704486802
 C          5.0557660670        6.9015384408        0.6855674833
 N          4.1839127822        5.8896364303        0.3563060601
 C          4.5164377505        4.7492674834       -0.3944930607
 C          3.8580491814        4.4840229295       -1.5915277418
 C          4.1908939395        3.3587306614       -2.3219614230
 C          5.1749998337        2.4949564773       -1.8679521709
 C          5.8394053281        2.7674605138       -0.6839646613
 C          5.5178099554        3.8938594217        0.0527104869
 C          0.4964516352        6.1159085078        0.6412146737
 C         -0.6632415541        5.3745376151        0.5362540263
 C         -1.8329922050        2.1932901230       -0.7077378285
 C         -2.9092829882        1.3418441746       -0.8446550766
 C         -2.3975704195       -1.0423550862        0.8352499173
 C         -1.1800421946       -1.6905572532        0.7892851896
 C          1.4319967089       -2.9371790587       -0.3495503095
 C          1.3931574404       -1.5473392850       -0.8434530255
 C          0.5510371665       -1.2024781695       -1.8958468009
 C          0.5733315543        0.0763391206       -2.4214454519
 C          1.4374333275        1.0265755345       -1.9042220577
 C          2.2635972106        0.6976847203       -0.8424474867
 C          2.2370249066       -0.5767495462       -0.3109613204
 C          2.6496015542       -3.6267815141       -0.3271174976
 C          3.8886557005       -2.9375224150       -0.7484779432
 C          4.0030142172       -2.4100800915       -2.0307176076
 C          5.1520911094       -1.7448340953       -2.4149125739
 C          6.2009334783       -1.5952077059       -1.5233427599
 C          6.0981820984       -2.1237283468       -0.2477187661
 C          4.9514403736       -2.7931351758        0.1371817350
 C          2.7045401311       -4.9581913927        0.0941140027
 C          3.9998980466       -5.6639967920        0.1499541968
 C          4.8085888396       -5.7670443993       -0.9773723647
 C          6.0213503953       -6.4269523688       -0.9105365345
 C          6.4437966252       -6.9891976233        0.2822556501
 C          5.6446978956       -6.8914784288        1.4088831982
 C          4.4302149774       -6.2350143295        1.3437856816
 C          2.1316264405       -8.0023919724        0.0984231684
 C          2.1111701527       -9.3286200217        0.4869001784
 H          1.4764802849      -10.7370360429        1.9702795801
 H          0.3844081198       -9.0238999707        3.3714793727
 H          0.4211388827       -6.6617489014        2.6831731200
 H         -0.5801492993       -5.4186383193        0.7587562986
 H         -2.0591481930       -4.3896064358       -1.0366852910
 H         -4.2288428035       -3.2081755279       -0.9884773882
 H         -8.1829774111       -2.9485377455        0.2124513810
 H        -10.6503910283       -3.2735419124        0.2986385001
 H        -12.1295417987       -1.2999877401        0.1867558916
 H        -11.2155463964        0.9260580501       -0.0327566666
 H        -10.4330747442        2.6771104693       -0.4064756782
 H         -9.4619570162        4.8610909693       -0.7944481997
 H         -7.0064809900        5.1315063764       -0.9345993140
 H         -5.5495946917        3.1950638625       -0.6160207995
 H         -4.7806896231        2.4317697176        1.7567937793
 H         -2.8831672461        3.9996079844        1.9487792270
 H          0.6747177615        2.2766312361        0.5687874500
 H          2.7301429421        3.5793894499        0.8251441729
 H          4.2634914694        9.8186073086        2.2699006713
 H          6.6995405151       10.1216512628        1.9197180753
 H          8.0322619305        8.4181392314        0.7866191994
 H          7.0033411998        6.3243107959       -0.0374769191
 H          3.0878278001        5.1592444709       -1.9338799296
 H          3.6826428792        3.1544611838       -3.2521677930
 H          5.4193845626        1.6082871759       -2.4323481360
 H          6.6064376554        2.0963527428       -0.3276345499
 H          6.0239591122        4.1085223479        0.9824292050
 H          0.4654635164        7.1934856366        0.6749616452
 H         -1.6200933692        5.8725538265        0.4765460563
 H         -0.9998236057        2.1182363059       -1.3878153713
 H         -2.9267031904        0.5998255649       -1.6282179555
 H         -2.4895113120       -0.1363505167        1.4137118844
 H         -0.3315752216       -1.2701783910        1.3086775027
 H         -0.1073592196       -1.9484292401       -2.3166252961
 H         -0.0773845572        0.3270281765       -3.2474739935
 H          1.4683863330        2.0238114362       -2.3187068057
 H          2.9406931658        1.4349471880       -0.4388409945
 H          2.8782737009       -0.8254707836        0.5214696383
 H          3.1870896240       -2.5278783783       -2.7293173128
 H          5.2289168098       -1.3428240725       -3.4150804063
 H          7.0978252746       -1.0728432358       -1.8230328195
 H          6.9147905056       -2.0143278208        0.4511178589
 H          4.8711262987       -3.1995110484        1.1350205445
 H          4.4781029318       -5.3369088206       -1.9116688884
 H          6.6389292512       -6.5035023317       -1.7934949650
 H          7.3920598636       -7.5033286166        0.3333527159
 H          5.9690104383       -7.3280498551        2.3422703517
 H          3.8098571395       -6.1550489820        2.2249086373
 H          2.6099626910       -7.7185678604       -0.8270125726
 H          2.5832058559      -10.0756870683       -0.1341604300
  130
  -199.183498690500       0.265390318766389      !
 C          5.3008591355        1.4772246121        1.6426229715
 C          5.6498614160        0.7190434363        0.5368769413
 C          4.8037592640       -0.2724591955        0.0763060285
 C          3.5910015827       -0.5221017385        0.7145358660
 C          2.7006441934       -1.6071448340        0.2601445389
 C          1.3516833088       -1.3522022975        0.0529162814
 C          0.4802256954       -2.3431227241       -0.3855215882
 C         -0.9450143203       -2.0116574462       -0.5470634161
 C         -1.9475228336       -2.8194562627       -0.0150249371
 C         -3.2738575290       -2.4437597765       -0.0953094452
 C         -3.6263056289       -1.2414044490       -0.6986858488
 C         -4.9953808342       -0.7320821972       -0.6303663962
 N         -6.0751412141       -1.2798080450       -1.1129744090
 C         -7.0871916617       -0.4057141691       -0.8404866730
 C         -8.4560185185       -0.5031120243       -1.2145420576
 C         -8.9303934202       -1.5899397801       -1.9569497271
 C        -10.2436558219       -1.6400174872       -2.3519018295
 C        -11.1019086424       -0.5966795732       -2.0096577673
 C        -10.6489701233        0.4725867514       -1.2729639737
 C         -9.3160279256        0.5569234672       -0.8425099228
 C         -8.8179215198        1.6600939561       -0.0393945859
 C         -9.6610233883        2.6791796824        0.4262929904
 C         -9.1978158143        3.7012359382        1.2208663342
 C         -7.8600835285        3.7421653993        1.6028267894
 C         -6.9986583695        2.7684710265        1.1616842549
 C         -7.4477279638        1.7338533346        0.3291886823
 C         -6.5967466910        0.7025849608       -0.1534179677
 N         -5.2468945702        0.4845072611       -0.0256735058
 C         -4.2103156833        1.2985422473        0.4596166010
 C         -3.3182990815        0.7762314944        1.3905876052
 C         -2.1568092207        1.4562194731        1.6896821187
 C         -1.8639696567        2.6747829585        1.0790751557
 C         -0.5433106406        3.2865243794        1.2608689000
 C          0.0864348856        3.9132521954        0.1859941663
 C          1.3805154527        4.3774940208        0.2900200970
 C          2.0929234027        4.2115589834        1.4763575475
 C          3.4809119760        4.6139458150        1.6189130545
 N          3.9892812024        5.0204134544        2.7524180320
 C          5.2911262645        5.3431045549        2.4937546665
 C          6.2836963975        5.8315671956        3.3376830715
 C          7.5284408733        6.0648996649        2.7938095303
 C          7.7995716614        5.8085455701        1.4475375969
 C          6.8307137293        5.3226062476        0.5926778978
 C          5.5688186046        5.1102607778        1.1253447507
 N          4.3932449393        4.6430361944        0.5831478381
 C          4.2389636832        4.2011474180       -0.7406717639
 C          4.6397648781        5.0240714793       -1.7879790860
 C          4.5128031269        4.5863793481       -3.0941454805
 C          3.9869713852        3.3336751953       -3.3614899993
 C          3.5821177859        2.5180959991       -2.3168043833
 C          3.7056107114        2.9439664701       -1.0082282377
 C          1.4413382631        3.6556341157        2.5777632316
 C          0.1463789032        3.1974547885        2.4703640411
 C         -2.8151223411        3.2348746108        0.2257165397
 C         -3.9730951615        2.5546213249       -0.0906942308
 C         -2.6325020391       -0.4595267243       -1.2829175093
 C         -1.3101534386       -0.8405353087       -1.2062534437
 C          0.9720081594       -3.6298893674       -0.6293930233
 C          0.0763823381       -4.6907659298       -1.1316240367
 C         -0.0663841233       -5.8918672934       -0.4438511185
 C         -0.9036504201       -6.8796008409       -0.9276609060
 C         -1.6052298798       -6.6830631617       -2.1052397087
 C         -1.4699246089       -5.4899793806       -2.7949482446
 C         -0.6369744075       -4.4989836138       -2.3108274935
 C          2.3257648515       -3.9018577634       -0.4124677429
 C          2.8433708607       -5.2659613147       -0.6501587525
 C          3.4399668053       -5.9817784547        0.3821931072
 C          3.9184278509       -7.2596713773        0.1623314152
 C          3.8099392521       -7.8370714033       -1.0914585316
 C          3.2175725022       -7.1308191148       -2.1245774514
 C          2.7349105002       -5.8541185355       -1.9059356988
 C          3.1919636147       -2.8986116279        0.0320008544
 C          4.6119865024       -3.2186848118        0.2774961055
 C          5.1729015925       -2.9968255348        1.5312317584
 C          6.4961235146       -3.3147968911        1.7722343742
 C          7.2767724793       -3.8548078930        0.7641086024
 C          6.7277044441       -4.0733455854       -0.4881376625
 C          5.4038712941       -3.7589919150       -0.7307935451
 C          3.2327525572        0.2698796091        1.8028187865
 C          4.0852543301        1.2556499687        2.2679507845
 H          5.9681218559        2.2420847834        2.0121706414
 H          6.5884583832        0.8986137105        0.0333730964
 H          5.0816192028       -0.8563598041       -0.7879054460
 H          0.9674294720       -0.3592920542        0.2406054205
 H         -1.6828207070       -3.7327044901        0.4948984857
 H         -4.0446017555       -3.0629622068        0.3382414794
 H         -8.2298212413       -2.3701024415       -2.2110326072
 H        -10.6122114481       -2.4752934173       -2.9287833641
 H        -12.1342285573       -0.6268982642       -2.3269052406
 H        -11.3474738757        1.2591122023       -1.0352598656
 H        -10.7082289968        2.6677802926        0.1709404781
 H         -9.8777877075        4.4680455036        1.5613859200
 H         -7.5025599445        4.5319804977        2.2468222830
 H         -5.9655790602        2.7864504912        1.4725446744
 H         -3.5184838396       -0.1845824439        1.8393830738
 H         -1.4432399564        1.0098675601        2.3648036128
 H         -0.4334934100        4.0101078468       -0.7552513869
 H          1.8342404646        4.8703125076       -0.5556060437
 H          6.0733820993        6.0162151566        4.3787958799
 H          8.3194734780        6.4503034045        3.4198455860
 H          8.7926259238        5.9965538254        1.0671952973
 H          7.0493123435        5.1140159213       -0.4439538361
 H          5.0332308901        6.0068227811       -1.5741001453
 H          4.8220228327        5.2294462339       -3.9044572691
 H          3.8904231604        2.9953177473       -4.3819164415
 H          3.1728078384        1.5394085790       -2.5183827537
 H          3.3895193003        2.3126827710       -0.1941196969
 H          1.9775689152        3.5876802348        3.5108012505
 H         -0.3423528592        2.7714379574        3.3339948820
 H         -2.6368262110        4.2056323246       -0.2113037646
 H         -4.6830192426        2.9733369920       -0.7890945735
 H         -2.8987488805        0.4561544447       -1.7897917369
 H         -0.5476466506       -0.2221267001       -1.6570862718
 H          0.4734653081       -6.0452834715        0.4792501930
 H         -1.0089818363       -7.8067570651       -0.3832916496
 H         -2.2565973708       -7.4567782891       -2.4835429478
 H         -2.0155972307       -5.3309107771       -3.7133340284
 H         -0.5288612867       -3.5696989906       -2.8514930939
 H          3.5199645080       -5.5345762574        1.3624355367
 H          4.3775995191       -7.8069901938        0.9725545936
 H          4.1856686162       -8.8349232934       -1.2627392954
 H          3.1305045608       -7.5764950428       -3.1047320418
 H          2.2765537895       -5.3028783607       -2.7143515467
 H          4.5625943910       -2.5819119788        2.3204457703
 H          6.9192864112       -3.1420974282        2.7509981163
 H          8.3100713768       -4.1046862657        0.9537975559
 H          7.3326358599       -4.4923962263       -1.2789726823
 H          4.9797254811       -3.9249532475       -1.7103911450
 H          2.2906510101        0.0933151402        2.3023679293
 H          3.8041930402        1.8530235408        3.1219158994
  130
  -199.182433562800       8.597778987850478E-002 !
 C          5.2887604129        1.4834638677        2.0030240026
 C          5.6730069877        0.8137558270        0.8531403058
 C          4.8539778779       -0.1538699256        0.3024174803
 C          3.6311716141       -0.4641717588        0.8920436350
 C          2.7560643452       -1.5081175466        0.3267598391
 C          1.4158541300       -1.2291798969        0.0937636978
 C          0.5537911194       -2.1806367055       -0.4400086719
 C         -0.8682980495       -1.8353152950       -0.6084236976
 C         -1.8789724709       -2.6784308939       -0.1509135251
 C         -3.2047163992       -2.3038709456       -0.2372023660
 C         -3.5536666559       -1.0668035606       -0.7705993884
 C         -4.9369389825       -0.5985144969       -0.7094511111
 N         -5.9937017378       -1.2015948052       -1.1799166724
 C         -7.0466270371       -0.3841041310       -0.8916368310
 C         -8.4173021422       -0.5666155592       -1.2253937145
 C         -8.8456366106       -1.6847325351       -1.9492347964
 C        -10.1674688710       -1.8264533556       -2.2895671137
 C        -11.0811553392       -0.8448419375       -1.9101351032
 C        -10.6728367206        0.2554212719       -1.1932583678
 C         -9.3319732841        0.4334351498       -0.8194500886
 C         -8.8788543092        1.5707995615       -0.0376233391
 C         -9.7693534368        2.5395887391        0.4470167825
 C         -9.3473327674        3.5957765347        1.2195479425
 C         -8.0036282923        3.7236570330        1.5585667219
 C         -7.0972920788        2.8004907918        1.0992363263
 C         -7.5053870864        1.7312233017        0.2896055991
 C         -6.6070422627        0.7486873689       -0.2091150568
 N         -5.2460512920        0.6029073226       -0.1019759187
 C         -4.2506526177        1.4400898586        0.4277981840
 C         -3.3838334083        0.9227414010        1.3848224156
 C         -2.2477226163        1.6202331976        1.7339020572
 C         -1.9568948050        2.8506163843        1.1463442331
 C         -0.6394398118        3.4584266838        1.3591811330
 C          0.0181809057        4.0701966597        0.2921247977
 C          1.3293075452        4.4791247985        0.4075468397
 C          2.0250980377        4.2736891081        1.5975785002
 C          3.4439903967        4.5608991940        1.7187061224
 N          4.0056924753        5.0114232901        2.8074613251
 C          5.3354642310        5.1464210986        2.5202472807
 C          6.3904320243        5.5719953559        3.3207427040
 C          7.6527238192        5.5761762787        2.7668013703
 C          7.8774855473        5.1600804460        1.4524367358
 C          6.8451364256        4.7376253888        0.6390632783
 C          5.5698106265        4.7505817782        1.1811439328
 N          4.3405455323        4.3838177229        0.6837663722
 C          4.1079262602        3.8128950018       -0.5772983925
 C          4.6028308705        4.4333534207       -1.7190793346
 C          4.3909028637        3.8589200168       -2.9598786918
 C          3.6866018509        2.6718185155       -3.0687647715
 C          3.1885163015        2.0586276324       -1.9303960300
 C          3.3958164844        2.6226497711       -0.6868059668
 C          1.3432709865        3.7539480523        2.6968203003
 C          0.0311013998        3.3491614649        2.5775097976
 C         -2.8892779182        3.4069686442        0.2704620394
 C         -4.0225352878        2.7092855620       -0.0952941775
 C         -2.5500833610       -0.2436185477       -1.2767780281
 C         -1.2268598219       -0.6234360430       -1.1937549064
 C          1.0506543022       -3.4485709774       -0.7624868071
 C          0.1635184582       -4.4725490518       -1.3490534085
 C          0.0149640421       -5.7156977536       -0.7415705357
 C         -0.8183321615       -6.6697007433       -1.2944814395
 C         -1.5116143071       -6.3964269395       -2.4616366086
 C         -1.3701482019       -5.1616304902       -3.0719424666
 C         -0.5398084512       -4.2046826482       -2.5192531156
 C          2.3983003298       -3.7414250999       -0.5316474803
 C          2.9188130174       -5.0853621734       -0.8613426283
 C          3.4948859591       -5.8802297359        0.1241021676
 C          3.9710860140       -7.1409540982       -0.1831750511
 C          3.8814726765       -7.6222135805       -1.4783943184
 C          3.3121191659       -6.8359675107       -2.4656665777
 C          2.8319894787       -5.5763613943       -2.1598128219
 C          3.2526107859       -2.7798369160        0.0160406721
 C          4.6638735005       -3.1196700166        0.2852700924
 C          5.1819875354       -2.9890502322        1.5700746928
 C          6.4973785238       -3.3225591243        1.8322785922
 C          7.3134644580       -3.7873039788        0.8147352401
 C          6.8071935120       -3.9153868098       -0.4676924258
 C          5.4911330883       -3.5854769031       -0.7317166196
 C          3.2381491664        0.2377419764        2.0290621614
 C          4.0643460894        1.1993166767        2.5837123237
 H          5.9365369976        2.2276029274        2.4417246401
 H          6.6191904611        1.0448555030        0.3858800446
 H          5.1583558269       -0.6680177536       -0.5965115651
 H          1.0296227453       -0.2500984183        0.3414978838
 H         -1.6212790397       -3.6218224383        0.3047200095
 H         -3.9818134198       -2.9532027845        0.1363851573
 H         -8.1043612758       -2.4164463504       -2.2305867670
 H        -10.5012038482       -2.6868543394       -2.8505002423
 H        -12.1216535075       -0.9483398197       -2.1819939066
 H        -11.4143505269        0.9908399428       -0.9243277213
 H        -10.8208895264        2.4618567784        0.2230644967
 H        -10.0631727577        4.3220818012        1.5751212342
 H         -7.6759666882        4.5414298080        2.1832164684
 H         -6.0587253279        2.8871064246        1.3776760521
 H         -3.5821199855       -0.0485633356        1.8115130251
 H         -1.5490827732        1.1789578631        2.4275523068
 H         -0.4907474745        4.1875736818       -0.6527008466
 H          1.8163084286        4.9488675619       -0.4332712104
 H          6.2142240430        5.8783544231        4.3392364454
 H          8.4937959483        5.9007608872        3.3612277865
 H          8.8853153870        5.1679311495        1.0646864104
 H          7.0259078884        4.4020082189       -0.3710550170
 H          5.1370873845        5.3677666006       -1.6314070241
 H          4.7749948352        4.3442841946       -3.8446651846
 H          3.5254350826        2.2265724769       -4.0388519682
 H          2.6438822987        1.1292484759       -2.0066591199
 H          3.0125855006        2.1472460505        0.2009501797
 H          1.8717569875        3.6559826907        3.6316678639
 H         -0.4820943897        2.9396038591        3.4348719854
 H         -2.7126823157        4.3862543070       -0.1481277711
 H         -4.7146356528        3.1232350035       -0.8143048575
 H         -2.8071330389        0.7007698768       -1.7331818878
 H         -0.4592579637        0.0274260304       -1.5874225077
 H          0.5468122319       -5.9281375362        0.1743658453
 H         -0.9276948256       -7.6298678538       -0.8117363164
 H         -2.1614948796       -7.1430088678       -2.8931631678
 H         -1.9096075277       -4.9428852371       -3.9817571387
 H         -0.4268693240       -3.2430477458       -2.9990723842
 H          3.5592248127       -5.5096146133        1.1369562528
 H          4.4126719044       -7.7507493587        0.5914980891
 H          4.2538896767       -8.6072702372       -1.7174630997
 H          3.2409650230       -7.2056592927       -3.4782018155
 H          2.3923149420       -4.9625520656       -2.9327089183
 H          4.5445315557       -2.6335176912        2.3667857504
 H          6.8867475451       -3.2209821407        2.8348023938
 H          8.3407783980       -4.0489231717        1.0205332866
 H          7.4399139499       -4.2755065954       -1.2657768287
 H          5.1009038758       -3.6810010654       -1.7345384292
 H          2.2876725336        0.0112707830        2.4918361171
 H          3.7548540239        1.7298454006        3.4719373110
  130
  -199.182389819400       8.208866679406912E-002 !
 C          5.1384313799        1.4219847248        2.4656037856
 C          5.5942943813        0.8399318581        1.2943288463
 C          4.8196689948       -0.0925377741        0.6306174678
 C          3.5709646553       -0.4575097649        1.1286712945
 C          2.7336408873       -1.4537457358        0.4358569807
 C          1.3972477576       -1.1700206808        0.1841740231
 C          0.5692083251       -2.0778985753       -0.4650959576
 C         -0.8558657240       -1.7442655644       -0.6344195770
 C         -1.8558913193       -2.6313078141       -0.2419399018
 C         -3.1867304197       -2.2717676597       -0.3131251625
 C         -3.5516572898       -1.0105060585       -0.7749938123
 C         -4.9432291192       -0.5708640793       -0.7046680208
 N         -5.9865881207       -1.1935866876       -1.1807632660
 C         -7.0575597288       -0.4027626645       -0.8868572948
 C         -8.4239422140       -0.6140283227       -1.2217154524
 C         -8.8276554358       -1.7402089426       -1.9469707028
 C        -10.1461859260       -1.9109661340       -2.2863335421
 C        -11.0813488676       -0.9509976260       -1.9040296398
 C        -10.6972876875        0.1570369190       -1.1858003265
 C         -9.3603319455        0.3649387406       -0.8138860904
 C         -8.9318261177        1.5127455667       -0.0336157212
 C         -9.8414759147        2.4684998920        0.4409943253
 C         -9.4417075346        3.5354590228        1.2105507578
 C         -8.1022807162        3.6883331181        1.5565367970
 C         -7.1775790659        2.7789414204        1.1062642104
 C         -7.5631452994        1.6990500709        0.2998751756
 C         -6.6439018743        0.7343925359       -0.1951291715
 N         -5.2806793080        0.6177124542       -0.0860887452
 C         -4.3018633843        1.4611157793        0.4659487489
 C         -3.4538128737        0.9440567700        1.4398409835
 C         -2.3166089612        1.6342410353        1.7996588595
 C         -2.0039578312        2.8541994382        1.2016739468
 C         -0.6752887011        3.4380309479        1.4135985704
 C          0.0087617850        4.0027195409        0.3372461060
 C          1.3306608924        4.3761750287        0.4541095884
 C          2.0090601958        4.1837387232        1.6562230311
 C          3.4350760213        4.4293726807        1.7888634006
 N          3.9922539112        4.8971645729        2.8724540027
 C          5.3317201333        4.9707068676        2.6092821173
 C          6.3861149924        5.3803893739        3.4187162519
 C          7.6593500751        5.3112504585        2.8948652887
 C          7.8943171727        4.8384270273        1.6017789409
 C          6.8625301149        4.4314994525        0.7797926802
 C          5.5772023363        4.5184779397        1.2903455466
 N          4.3441035419        4.1836690486        0.7789421466
 C          4.1177575326        3.5835709298       -0.4691644610
 C          4.6837801573        4.1351489440       -1.6133362143
 C          4.4871266431        3.5259736724       -2.8399120104
 C          3.7264358212        2.3728177843       -2.9329427624
 C          3.1539761422        1.8307288648       -1.7935460975
 C          3.3457035891        2.4301575468       -0.5639907910
 C          1.3024426684        3.7136989053        2.7622310959
 C         -0.0192296990        3.3420287506        2.6407450358
 C         -2.9220163464        3.4153144956        0.3138601089
 C         -4.0594014663        2.7273506336       -0.0581884622
 C         -2.5571397592       -0.1456953922       -1.2281208669
 C         -1.2282633786       -0.5057129911       -1.1497511560
 C          1.0970550678       -3.2991017064       -0.8982943633
 C          0.2423934242       -4.2627290131       -1.6190030652
 C          0.0991975054       -5.5696800098       -1.1637456407
 C         -0.7055462420       -6.4634840446       -1.8447759488
 C         -1.3753654120       -6.0655875178       -2.9895295468
 C         -1.2394593470       -4.7664572678       -3.4485960196
 C         -0.4376831858       -3.8699342186       -2.7676621327
 C          2.4412803170       -3.5951459705       -0.6528345657
 C          2.9995176520       -4.8869889870       -1.1050746924
 C          3.5608455935       -5.7731260309       -0.1917367667
 C          4.0794207322       -6.9815719296       -0.6173652349
 C          4.0473819828       -7.3184529124       -1.9599928576
 C          3.4912530752       -6.4412619485       -2.8755538610
 C          2.9685327134       -5.2339726433       -2.4516062759
 C          3.2592918365       -2.6831924421        0.0207124400
 C          4.6643577792       -3.0311166296        0.3114601371
 C          5.1266677475       -3.0281642883        1.6238567006
 C          6.4371967822       -3.3647496087        1.9056197677
 C          7.3038326237       -3.7047917510        0.8806091353
 C          6.8528478986       -3.7060073305       -0.4285933979
 C          5.5416397994       -3.3733279811       -0.7125588904
 C          3.1094567626        0.1535337443        2.2921780520
 C          3.8896792474        1.0823949352        2.9572703167
 H          5.7496141436        2.1418486080        2.9888498966
 H          6.5605701921        1.1156206793        0.8975853112
 H          5.1774018763       -0.5318577586       -0.2879591781
 H          0.9858361869       -0.2239384813        0.5081936916
 H         -1.5846288593       -3.5989558777        0.1513511580
 H         -3.9563474191       -2.9536657515        0.0148090078
 H         -8.0704788932       -2.4548739027       -2.2296780239
 H        -10.4609906407       -2.7779230112       -2.8479890267
 H        -12.1196549118       -1.0779183030       -2.1740320982
 H        -11.4550751906        0.8748110459       -0.9143868474
 H        -10.8900772749        2.3727356594        0.2101185115
 H        -10.1718271013        4.2514502565        1.5578383764
 H         -7.7925084698        4.5151182935        2.1786460198
 H         -6.1414432251        2.8850324484        1.3876423888
 H         -3.6646164271       -0.0246369790        1.8668095256
 H         -1.6306858989        1.1923461618        2.5055709123
 H         -0.4889307545        4.1087837027       -0.6149834923
 H          1.8399491928        4.8063082147       -0.3948620361
 H          6.2010025693        5.7292547441        4.4218643623
 H          8.5006149034        5.6198332865        3.4975004979
 H          8.9099561050        4.7872649103        1.2383843589
 H          7.0520471518        4.0511901247       -0.2127230730
 H          5.2620695129        5.0440660667       -1.5394638138
 H          4.9277298500        3.9577530129       -3.7261418990
 H          3.5781582215        1.8996740309       -3.8918582422
 H          2.5637725711        0.9286170798       -1.8574395761
 H          2.9057130713        2.0101100664        0.3252310299
 H          1.8204550557        3.6255486178        3.7037103414
 H         -0.5514033120        2.9681300317        3.5028350498
 H         -2.7288459990        4.3886885594       -0.1112312981
 H         -4.7399227124        3.1432006513       -0.7871722801
 H         -2.8248235575        0.8157211228       -1.6397641378
 H         -0.4675484722        0.1812671835       -1.4924666763
 H          0.6127943150       -5.8806275485       -0.2657912438
 H         -0.8105497699       -7.4748375421       -1.4802018050
 H         -2.0025873664       -6.7653686266       -3.5213239961
 H         -1.7607945320       -4.4500998707       -4.3401217848
 H         -0.3286355941       -2.8578775614       -3.1302820601
 H          3.5813516368       -5.5147670906        0.8571190540
 H          4.5097575097       -7.6632377914        0.1016836286
 H          4.4535860248       -8.2624637963       -2.2916557635
 H          3.4635909491       -6.6989517373       -3.9242513695
 H          2.5385326574       -4.5488404687       -3.1679469667
 H          4.4498879710       -2.7685686805        2.4252019526
 H          6.7833514977       -3.3629097654        2.9289063219
 H          8.3275692801       -3.9681159459        1.1014731255
 H          7.5252922968       -3.9682652175       -1.2323479637
 H          5.1943597104       -3.3686896487       -1.7355132196
 H          2.1401988759       -0.1176394612        2.6868918487
 H          3.5254527581        1.5421681675        3.8639954654
