  130
       -200.02025917
 C          5.3616296181        1.8899368653        1.4784404331
 C          5.6993841080        0.9733828422        0.4964362445
 C          4.8564698422       -0.0831750462        0.2079265096
 C          3.6566267502       -0.2391932845        0.8982594436
 C          2.7479209418       -1.3628644445        0.6063591972
 C          1.3966608596       -1.1158041670        0.3993610707
 C          0.5021768315       -2.1426423309        0.1219718326
 C         -0.9291155271       -1.8204431571       -0.0137020265
 C         -1.8965340294       -2.5154302387        0.7088142967
 C         -3.2245177899       -2.1432132415        0.6506523334
 C         -3.6187279401       -1.0601872498       -0.1296861545
 C         -4.9930520207       -0.5676809286       -0.0716018368
 N         -6.0827463081       -1.2632917459       -0.2497593129
 C         -7.1133649610       -0.3816842333       -0.1106301405
 C         -8.5072387534       -0.6307628216       -0.2478889022
 C         -8.9886292888       -1.9042536746       -0.5699859874
 C        -10.3348867078       -2.1177402610       -0.7276636583
 C        -11.2203004634       -1.0536878688       -0.5662309301
 C        -10.7593158320        0.2011403076       -0.2437463463
 C         -9.3912816098        0.4589708986       -0.0676788146
 C         -8.8798152675        1.7683319782        0.2982109878
 C         -9.7311825838        2.8544795362        0.5464869527
 C         -9.2501382856        4.0845364583        0.9285733289
 C         -7.8826329337        4.2821026669        1.0960180547
 C         -7.0135285480        3.2468217730        0.8558871706
 C         -7.4840307269        1.9930785591        0.4413445601
 C         -6.6251214689        0.8920866289        0.1754618900
 N         -5.2589176897        0.7617678801        0.1950598166
 C         -4.2241299076        1.6928740234        0.3858758852
 C         -3.2933528666        1.4529369754        1.3914056387
 C         -2.1205099042        2.1753913174        1.4308400378
 C         -1.8534104892        3.1537720387        0.4742501275
 C         -0.5049440529        3.7241127527        0.3877476700
 C          0.0803277977        3.9223671843       -0.8626462454
 C          1.4110106306        4.2641085432       -0.9768362930
 C          2.1976158258        4.4075434446        0.1646595552
 C          3.6321602863        4.6279219967        0.0941887963
 N          4.2935046857        5.3718294674        0.9383868233
 C          5.6029123108        5.3149496647        0.5497301242
 C          6.7328525877        5.9043970597        1.1070080013
 C          7.9503650774        5.6372299581        0.5182697961
 C          8.0578358322        4.7975337842       -0.5926776417
 C          6.9492475821        4.2061937157       -1.1646785259
 C          5.7186224371        4.4869536540       -0.5928108884
 N          4.4395833712        4.0631057395       -0.8731233585
 C          4.0907798994        3.1322190889       -1.8635306252
 C          4.5520387939        3.3024596963       -3.1643024293
 C          4.2347310268        2.3681091764       -4.1341272520
 C          3.4572160024        1.2675850882       -3.8157079254
 C          2.9891939147        1.1052489386       -2.5217227861
 C          3.3017811824        2.0313461285       -1.5457547510
 C          1.5936125553        4.3092458300        1.4172637338
 C          0.2627380451        3.9678457881        1.5265087018
 C         -2.8453389031        3.4636521157       -0.4563127749
 C         -4.0194915653        2.7397385489       -0.5080235040
 C         -2.6627235668       -0.4040197151       -0.9028527210
 C         -1.3360221110       -0.7745125044       -0.8375437759
 C          0.9747111413       -3.4559890381        0.0247510384
 C          0.0464439989       -4.5560438345       -0.3018139651
 C         -0.0662640137       -5.6657076707        0.5299482461
 C         -0.9404068020       -6.6892847779        0.2161573550
 C         -1.7110246158       -6.6199412362       -0.9322240385
 C         -1.6060101819       -5.5185938408       -1.7646648921
 C         -0.7348036555       -4.4923368859       -1.4515109367
 C          2.3330596451       -3.7169350564        0.2287872039
 C          2.8333520618       -5.1044817869        0.1316790061
 C          3.4693184811       -5.7040656575        1.2136032089
 C          3.9334624987       -7.0026595083        1.1206214946
 C          3.7718162606       -7.7170635171       -0.0543940871
 C          3.1407271635       -7.1268716815       -1.1362422504
 C          2.6722867814       -5.8297211277       -1.0441572510
 C          3.2198868524       -2.6787093318        0.5289413346
 C          4.6425496982       -2.9782023909        0.7860990714
 C          5.2263637777       -2.6077105849        1.9935844358
 C          6.5541813566       -2.8954814437        2.2470698687
 C          7.3170432433       -3.5532636819        1.2969659767
 C          6.7448215300       -3.9215819146        0.0910207196
 C          5.4160817035       -3.6381630398       -0.1633468193
 C          3.3128100823        0.7029875735        1.8647981182
 C          4.1613903781        1.7562946119        2.1552008089
 H          6.0264946788        2.7082912024        1.7103574521
 H          6.6267155228        1.0843542143       -0.0465559315
 H          5.1217455409       -0.7856039966       -0.5673026765
 H          1.0270210911       -0.1016422863        0.4638736715
 H         -1.5991000246       -3.3345885434        1.3453020338
 H         -3.9665961676       -2.6697493374        1.2310966240
 H         -8.2685838577       -2.6981207514       -0.6936605312
 H        -10.7097853158       -3.0989290729       -0.9784477641
 H        -12.2806257313       -1.2154046358       -0.6952566668
 H        -11.4810017395        0.9946879863       -0.1316820514
 H        -10.7977632563        2.7343857275        0.4463750732
 H         -9.9371553628        4.8976022300        1.1109419247
 H         -7.5074529942        5.2428336614        1.4166243946
 H         -5.9545002186        3.3920573501        1.0020791358
 H         -3.4726598976        0.6606333587        2.1021881800
 H         -1.3756118125        1.9347085109        2.1733169549
 H         -0.5037177896        3.7629707912       -1.7566105736
 H          1.8423712947        4.4070278636       -1.9559399622
 H          6.6464831069        6.5387818303        1.9744041408
 H          8.8476574441        6.0773930905        0.9272219864
 H          9.0341936271        4.6042057485       -1.0116589686
 H          7.0406897426        3.5447247479       -2.0130514087
 H          5.1437359424        4.1708462619       -3.4129091538
 H          4.5942239039        2.5042349227       -5.1431875340
 H          3.2146193437        0.5398827866       -4.5752909537
 H          2.3866432506        0.2467344779       -2.2645965089
 H          2.9432967262        1.9072824382       -0.5373678790
 H          2.1970530556        4.4818445908        2.2939391051
 H         -0.1896102233        3.8833479265        2.5034679404
 H         -2.6833625681        4.2616349107       -1.1651580903
 H         -4.7614434479        2.9485726749       -1.2652246147
 H         -2.9583847354        0.4036696675       -1.5552704157
 H         -0.6041467811       -0.2471247549       -1.4327777804
 H          0.5264647737       -5.7185470039        1.4314318805
 H         -1.0206876303       -7.5445859898        0.8709785288
 H         -2.3924616173       -7.4210195966       -1.1768122436
 H         -2.2057835232       -5.4584124776       -2.6609576514
 H         -0.6503059507       -3.6359416030       -2.1050325688
 H          3.5910458266       -5.1504033742        2.1333362690
 H          4.4227713676       -7.4590108926        1.9686837578
 H          4.1355729665       -8.7312941625       -0.1263372078
 H          3.0118974396       -7.6795814429       -2.0553997487
 H          2.1836025885       -5.3692766672       -1.8906965523
 H          4.6306480976       -2.0994569620        2.7381487659
 H          6.9951335160       -2.6065136460        3.1899381783
 H          8.3543527781       -3.7782148848        1.4958205991
 H          7.3359679762       -4.4329237600       -0.6546718888
 H          4.9741050064       -3.9208028563       -1.1077153212
 H          2.3823638651        0.5958458559        2.4047844411
 H          3.8887381772        2.4750287136        2.9136762035
