  130
       -200.02025917
 C          5.3616296181        1.8899368653        1.4784404331
 C          5.6993841080        0.9733828422        0.4964362445
 C          4.8564698422       -0.0831750462        0.2079265096
 C          3.6566267502       -0.2391932845        0.8982594436
 C          2.7479209418       -1.3628644445        0.6063591972
 C          1.3966608596       -1.1158041670        0.3993610707
 C          0.5021768315       -2.1426423309        0.1219718326
 C         -0.9291155271       -1.8204431571       -0.0137020265
 C         -1.8965340294       -2.5154302387        0.7088142967
 C         -3.2245177899       -2.1432132415        0.6506523334
 C         -3.6187279401       -1.0601872498       -0.1296861545
 C         -4.9930520207       -0.5676809286       -0.0716018368
 N         -6.0827463081       -1.2632917459       -0.2497593129
 C         -7.1133649610       -0.3816842333       -0.1106301405
 C         -8.5072387534       -0.6307628216       -0.2478889022
 C         -8.9886292888       -1.9042536746       -0.5699859874
 C        -10.3348867078       -2.1177402610       -0.7276636583
 C        -11.2203004634       -1.0536878688       -0.5662309301
 C        -10.7593158320        0.2011403076       -0.2437463463
 C         -9.3912816098        0.4589708986       -0.0676788146
 C         -8.8798152675        1.7683319782        0.2982109878
 C         -9.7311825838        2.8544795362        0.5464869527
 C         -9.2501382856        4.0845364583        0.9285733289
 C         -7.8826329337        4.2821026669        1.0960180547
 C         -7.0135285480        3.2468217730        0.8558871706
 C         -7.4840307269        1.9930785591        0.4413445601
 C         -6.6251214689        0.8920866289        0.1754618900
 N         -5.2589176897        0.7617678801        0.1950598166
 C         -4.2241299076        1.6928740234        0.3858758852
 C         -3.2933528666        1.4529369754        1.3914056387
 C         -2.1205099042        2.1753913174        1.4308400378
 C         -1.8534104892        3.1537720387        0.4742501275
 C         -0.5049440529        3.7241127527        0.3877476700
 C          0.0803277977        3.9223671843       -0.8626462454
 C          1.4110106306        4.2641085432       -0.9768362930
 C          2.1976158258        4.4075434446        0.1646595552
 C          3.6321602863        4.6279219967        0.0941887963
 N          4.2935046857        5.3718294674        0.9383868233
 C          5.6029123108        5.3149496647        0.5497301242
 C          6.7328525877        5.9043970597        1.1070080013
 C          7.9503650774        5.6372299581        0.5182697961
 C          8.0578358322        4.7975337842       -0.5926776417
 C          6.9492475821        4.2061937157       -1.1646785259
 C          5.7186224371        4.4869536540       -0.5928108884
 N          4.4395833712        4.0631057395       -0.8731233585
 C          4.0907798994        3.1322190889       -1.8635306252
 C          4.5520387939        3.3024596963       -3.1643024293
 C          4.2347310268        2.3681091764       -4.1341272520
 C          3.4572160024        1.2675850882       -3.8157079254
 C          2.9891939147        1.1052489386       -2.5217227861
 C          3.3017811824        2.0313461285       -1.5457547510
 C          1.5936125553        4.3092458300        1.4172637338
 C          0.2627380451        3.9678457881        1.5265087018
 C         -2.8453389031        3.4636521157       -0.4563127749
 C         -4.0194915653        2.7397385489       -0.5080235040
 C         -2.6627235668       -0.4040197151       -0.9028527210
 C         -1.3360221110       -0.7745125044       -0.8375437759
 C          0.9747111413       -3.4559890381        0.0247510384
 C          0.0464439989       -4.5560438345       -0.3018139651
 C         -0.0662640137       -5.6657076707        0.5299482461
 C         -0.9404068020       -6.6892847779        0.2161573550
 C         -1.7110246158       -6.6199412362       -0.9322240385
 C         -1.6060101819       -5.5185938408       -1.7646648921
 C         -0.7348036555       -4.4923368859       -1.4515109367
 C          2.3330596451       -3.7169350564        0.2287872039
 C          2.8333520618       -5.1044817869        0.1316790061
 C          3.4693184811       -5.7040656575        1.2136032089
 C          3.9334624987       -7.0026595083        1.1206214946
 C          3.7718162606       -7.7170635171       -0.0543940871
 C          3.1407271635       -7.1268716815       -1.1362422504
 C          2.6722867814       -5.8297211277       -1.0441572510
 C          3.2198868524       -2.6787093318        0.5289413346
 C          4.6425496982       -2.9782023909        0.7860990714
 C          5.2263637777       -2.6077105849        1.9935844358
 C          6.5541813566       -2.8954814437        2.2470698687
 C          7.3170432433       -3.5532636819        1.2969659767
 C          6.7448215300       -3.9215819146        0.0910207196
 C          5.4160817035       -3.6381630398       -0.1633468193
 C          3.3128100823        0.7029875735        1.8647981182
 C          4.1613903781        1.7562946119        2.1552008089
 H          6.0264946788        2.7082912024        1.7103574521
 H          6.6267155228        1.0843542143       -0.0465559315
 H          5.1217455409       -0.7856039966       -0.5673026765
 H          1.0270210911       -0.1016422863        0.4638736715
 H         -1.5991000246       -3.3345885434        1.3453020338
 H         -3.9665961676       -2.6697493374        1.2310966240
 H         -8.2685838577       -2.6981207514       -0.6936605312
 H        -10.7097853158       -3.0989290729       -0.9784477641
 H        -12.2806257313       -1.2154046358       -0.6952566668
 H        -11.4810017395        0.9946879863       -0.1316820514
 H        -10.7977632563        2.7343857275        0.4463750732
 H         -9.9371553628        4.8976022300        1.1109419247
 H         -7.5074529942        5.2428336614        1.4166243946
 H         -5.9545002186        3.3920573501        1.0020791358
 H         -3.4726598976        0.6606333587        2.1021881800
 H         -1.3756118125        1.9347085109        2.1733169549
 H         -0.5037177896        3.7629707912       -1.7566105736
 H          1.8423712947        4.4070278636       -1.9559399622
 H          6.6464831069        6.5387818303        1.9744041408
 H          8.8476574441        6.0773930905        0.9272219864
 H          9.0341936271        4.6042057485       -1.0116589686
 H          7.0406897426        3.5447247479       -2.0130514087
 H          5.1437359424        4.1708462619       -3.4129091538
 H          4.5942239039        2.5042349227       -5.1431875340
 H          3.2146193437        0.5398827866       -4.5752909537
 H          2.3866432506        0.2467344779       -2.2645965089
 H          2.9432967262        1.9072824382       -0.5373678790
 H          2.1970530556        4.4818445908        2.2939391051
 H         -0.1896102233        3.8833479265        2.5034679404
 H         -2.6833625681        4.2616349107       -1.1651580903
 H         -4.7614434479        2.9485726749       -1.2652246147
 H         -2.9583847354        0.4036696675       -1.5552704157
 H         -0.6041467811       -0.2471247549       -1.4327777804
 H          0.5264647737       -5.7185470039        1.4314318805
 H         -1.0206876303       -7.5445859898        0.8709785288
 H         -2.3924616173       -7.4210195966       -1.1768122436
 H         -2.2057835232       -5.4584124776       -2.6609576514
 H         -0.6503059507       -3.6359416030       -2.1050325688
 H          3.5910458266       -5.1504033742        2.1333362690
 H          4.4227713676       -7.4590108926        1.9686837578
 H          4.1355729665       -8.7312941625       -0.1263372078
 H          3.0118974396       -7.6795814429       -2.0553997487
 H          2.1836025885       -5.3692766672       -1.8906965523
 H          4.6306480976       -2.0994569620        2.7381487659
 H          6.9951335160       -2.6065136460        3.1899381783
 H          8.3543527781       -3.7782148848        1.4958205991
 H          7.3359679762       -4.4329237600       -0.6546718888
 H          4.9741050064       -3.9208028563       -1.1077153212
 H          2.3823638651        0.5958458559        2.4047844411
 H          3.8887381772        2.4750287136        2.9136762035
  130
       -200.01982694
 C          5.4561156522        1.7777944715        1.1198239655
 C          5.7332651096        0.8239108073        0.1545877561
 C          4.8602055207       -0.2259047603       -0.0600238429
 C          3.6895945076       -0.3356213066        0.6861889446
 C          2.7586472155       -1.4611121153        0.4817656367
 C          1.4062357047       -1.2086092582        0.2933983149
 C          0.4919246956       -2.2370890489        0.0943999882
 C         -0.9358348760       -1.9012955826       -0.0423240242
 C         -1.9118356569       -2.5663728639        0.6970790748
 C         -3.2362531489       -2.1843604726        0.6241220858
 C         -3.6173334261       -1.1147911361       -0.1804980960
 C         -4.9854373149       -0.6026160531       -0.1310559840
 N         -6.0847663632       -1.2721048299       -0.3433097113
 C         -7.1007134127       -0.3749027058       -0.1918901078
 C         -8.4967847074       -0.5930478892       -0.3557557285
 C         -8.9970237131       -1.8450648518       -0.7296759915
 C        -10.3445910364       -2.0270445577       -0.9143299858
 C        -11.2123304051       -0.9523698804       -0.7287085571
 C        -10.7328107192        0.2812523509       -0.3552751100
 C         -9.3630389561        0.5062652915       -0.1492876850
 C         -8.8329268500        1.7909446300        0.2734981105
 C         -9.6686446309        2.8794502820        0.5618528410
 C         -9.1711301455        4.0843153016        0.9991377818
 C         -7.8020250069        4.2518901747        1.1843367350
 C         -6.9478935141        3.2134406378        0.9073031528
 C         -7.4348576594        1.9859894519        0.4365527707
 C         -6.5926731934        0.8803452135        0.1375565876
 N         -5.2290462561        0.7235735699        0.1687217422
 C         -4.1833940120        1.6363790371        0.3826172372
 C         -3.2427094654        1.3541599516        1.3676986144
 C         -2.0738229045        2.0812262675        1.4323354016
 C         -1.8222555074        3.1100647021        0.5257742514
 C         -0.4853283126        3.7097998763        0.4677745817
 C          0.0841831787        4.0064468743       -0.7703667487
 C          1.4044253450        4.3892850598       -0.8703321496
 C          2.1979053673        4.4735577371        0.2723800431
 C          3.6247747896        4.7368318207        0.2006341765
 N          4.2825562447        5.4331449273        1.0873927076
 C          5.5839819720        5.4475795111        0.6689527990
 C          6.7081275866        6.0302027085        1.2448957329
 C          7.9180662952        5.8520637988        0.6088423490
 C          8.0247320146        5.1061313807       -0.5673443797
 C          6.9220436421        4.5225007882       -1.1583122726
 C          5.6982719912        4.7145723166       -0.5370501120
 N          4.4271507916        4.2719897908       -0.8222948943
 C          4.0811818611        3.4047187927       -1.8703861760
 C          4.4822480111        3.6958001026       -3.1696092350
 C          4.1586005802        2.8296704775       -4.1989498363
 C          3.4356386020        1.6773765820       -3.9407816240
 C          3.0311830391        1.3925434571       -2.6464627090
 C          3.3503553775        2.2494774642       -1.6113763793
 C          1.6079728973        4.2748375313        1.5197137549
 C          0.2863988633        3.8950373591        1.6149508457
 C         -2.8208851534        3.4528462150       -0.3859687983
 C         -3.9883655128        2.7212310753       -0.4668418897
 C         -2.6527842262       -0.4812129099       -0.9610448805
 C         -1.3312114651       -0.8690609941       -0.8896725930
 C          0.9464263735       -3.5604958820        0.0710533185
 C          0.0018657376       -4.6717659460       -0.1580438885
 C         -0.1063772645       -5.7123671693        0.7595372232
 C         -0.9937015344       -6.7491277554        0.5404530796
 C         -1.7820323574       -6.7620810243       -0.5979390411
 C         -1.6811778865       -5.7300461925       -1.5155122819
 C         -0.7967883973       -4.6904031341       -1.2971631686
 C          2.3059202369       -3.8272329915        0.2603359044
 C          2.7825972292       -5.2266685003        0.2477459118
 C          3.4332813727       -5.7604449035        1.3552064387
 C          3.8685777239       -7.0723326415        1.3462986535
 C          3.6630411755       -7.8662912902        0.2306739041
 C          3.0188072880       -7.3415264860       -0.8768627385
 C          2.5794623715       -6.0309585356       -0.8687204666
 C          3.2138068140       -2.7851525794        0.4707423705
 C          4.6395082095       -3.0894669087        0.7039842759
 C          5.2675123997       -2.6505865175        1.8655441244
 C          6.5971615769       -2.9475349287        2.0981107283
 C          7.3179737188       -3.6832627807        1.1726309127
 C          6.7019981055       -4.1194607519        0.0117512572
 C          5.3714892196       -3.8264343585       -0.2215854040
 C          3.4029193977        0.6463592565        1.6314361189
 C          4.2833968424        1.6911067665        1.8508129003
 H          6.1466817077        2.5884576789        1.2980355824
 H          6.6380224345        0.8972834734       -0.4311024454
 H          5.0809391671       -0.9626547309       -0.8173503852
 H          1.0526148901       -0.1869387258        0.3104010744
 H         -1.6254047598       -3.3692412342        1.3584073968
 H         -3.9848243189       -2.6911751530        1.2139180989
 H         -8.2900967891       -2.6476885183       -0.8714601055
 H        -10.7339798398       -2.9913584195       -1.2055172079
 H        -12.2733459985       -1.0888464807       -0.8799550680
 H        -11.4410064762        1.0842801112       -0.2263866885
 H        -10.7362764177        2.7804929001        0.4509707585
 H         -9.8463869397        4.8999207853        1.2117278910
 H         -7.4136344247        5.1915411672        1.5483566687
 H         -5.8884057818        3.3353552815        1.0693969821
 H         -3.4133156990        0.5314451766        2.0450827346
 H         -1.3225768732        1.8103774386        2.1577611609
 H         -0.5029292141        3.8939740354       -1.6693271807
 H          1.8219912908        4.6121295922       -1.8402713811
 H          6.6232775507        6.5927603444        2.1606271398
 H          8.8103774199        6.2911394657        1.0296673414
 H          8.9954981671        4.9822332061       -1.0238476695
 H          7.0118661958        3.9336777717       -2.0587985529
 H          5.0314378545        4.6039596890       -3.3693118364
 H          4.4700191299        3.0596212725       -5.2069643622
 H          3.1871486916        1.0038002173       -4.7469054213
 H          2.4726867970        0.4925014146       -2.4362386816
 H          3.0401502294        2.0298828345       -0.6031419696
 H          2.2139063290        4.4028835957        2.4024841181
 H         -0.1552349885        3.7354112864        2.5873994714
 H         -2.6711112514        4.2860384512       -1.0558660452
 H         -4.7355530919        2.9589740324       -1.2101604090
 H         -2.9386300276        0.3224006323       -1.6234239027
 H         -0.5938117409       -0.3656104141       -1.4984314878
 H          0.5001274509       -5.6998664812        1.6533651570
 H         -1.0707839737       -7.5495544993        1.2617707984
 H         -2.4741019287       -7.5731989651       -0.7684438799
 H         -2.2946751029       -5.7346440199       -2.4044603191
 H         -0.7158764782       -3.8879226914       -2.0163306476
 H          3.5882354721       -5.1449236770        2.2295583712
 H          4.3690104846       -7.4770315348        2.2139118682
 H          4.0035848396       -8.8910736402        0.2246681414
 H          2.8571002248       -7.9558567174       -1.7505970951
 H          2.0811270260       -5.6219872910       -1.7358123709
 H          4.7045637133       -2.0826462853        2.5922040808
 H          7.0723296627       -2.6049373464        3.0057572883
 H          8.3564992419       -3.9160285427        1.3555412927
 H          7.2600647631       -4.6920336020       -0.7146660222
 H          4.8954994229       -4.1632333094       -1.1310113030
 H          2.4935456754        0.5764454510        2.2119585197
 H          4.0568122688        2.4411024719        2.5940191748
  130
       -200.01944042
 C          1.5412837240       -8.8340215971        4.3222699649
 C          1.0151422003       -7.6623107408        4.8390005513
 C          1.0065452343       -6.5094648722        4.0755023692
 C          1.5331799300       -6.5102842911        2.7871448749
 C          1.5101667272       -5.2771454755        1.9805321625
 C          0.3194834310       -4.5743556009        1.8583897512
 C          0.2311888862       -3.4205033925        1.0917031517
 C         -1.0489262573       -2.6939085173        1.0388427542
 C         -2.2261066356       -3.3642323247        0.7149511895
 C         -3.4242824095       -2.6854627445        0.6456162171
 C         -3.4841753516       -1.3179852190        0.9173969525
 C         -4.7742551187       -0.6581986556        0.7819842821
 N         -5.9081975151       -1.2434355982        1.0768814424
 C         -6.8828678754       -0.3368564608        0.8035519512
 C         -8.2854065655       -0.4756833572        0.9985406991
 C         -8.8307262458       -1.6440333905        1.5409938371
 C        -10.1822678291       -1.7426953502        1.7583507321
 C        -11.0070398546       -0.6658715396        1.4390528571
 C        -10.4826011182        0.4847774676        0.8982354627
 C         -9.1081989903        0.6197475477        0.6493971444
 C         -8.5299475709        1.8039845974        0.0380102833
 C         -9.3296539747        2.8656878767       -0.4085252481
 C         -8.7975932787        3.9650745872       -1.0395187711
 C         -7.4282821426        4.0404109013       -1.2737364592
 C         -6.6082025634        3.0267920910       -0.8434131121
 C         -7.1268084238        1.9146164672       -0.1645393562
 C         -6.3223428351        0.8379557218        0.3048948843
 N         -4.9631055317        0.6236995852        0.3063612961
 C         -3.9257418542        1.5149582646       -0.0153751461
 C         -3.8149711353        2.7329886084        0.6498824716
 C         -2.7381386886        3.5607541026        0.3978555302
 C         -1.7380716443        3.1667207395       -0.4858709300
 C         -0.5199595339        3.9677944531       -0.6771951772
 C          0.7151365994        3.3499982312       -0.4999588432
 C          1.8874121349        4.0480174692       -0.6944886048
 C          1.8521789906        5.3802401806       -1.1038498129
 C          3.0658118347        6.1397803859       -1.3522746868
 N          3.1596009055        7.4280763027       -1.1577364900
 C          4.4524707250        7.7655743702       -1.4428064740
 C          5.0936782299        8.9997483528       -1.4070852120
 C          6.4240235260        9.0400092788       -1.7648745784
 C          7.1142343668        7.8909776299       -2.1586515703
 C          6.4995776327        6.6558061503       -2.2004978386
 C          5.1663222206        6.6055526223       -1.8269634410
 N          4.2573113749        5.5748293386       -1.7653541177
 C          4.5063065930        4.2528381333       -2.1716226789
 C          3.7355430935        3.6729257072       -3.1747913660
 C          3.9869240214        2.3712982274       -3.5661674220
 C          5.0007505136        1.6425960571       -2.9646330142
 C          5.7763479221        2.2253924789       -1.9765457082
 C          5.5367644590        3.5294881863       -1.5805374918
 C          0.6154852783        6.0120533661       -1.2403022029
 C         -0.5562630137        5.3162860134       -1.0201895896
 C         -1.8695483935        1.9560234305       -1.1619104806
 C         -2.9623733348        1.1426191627       -0.9469325039
 C         -2.3185504672       -0.6613824340        1.3112541605
 C         -1.1172716898       -1.3394905753        1.3531162137
 C          1.3634119328       -2.9617952798        0.4107279372
 C          1.2920895011       -1.7774941728       -0.4664533308
 C          0.3581111779       -1.7253019053       -1.4963022820
 C          0.3435584608       -0.6586359285       -2.3761525849
 C          1.2619335950        0.3685946213       -2.2400435601
 C          2.1810693309        0.3350050255       -1.2046004630
 C          2.1919612464       -0.7255875980       -0.3200717833
 C          2.5707937934       -3.6593955949        0.5298882485
 C          3.7714791015       -3.1707338967       -0.1824616963
 C          3.7698640534       -3.0472010869       -1.5681560596
 C          4.8842358977       -2.5672235203       -2.2302230048
 C          6.0137915211       -2.2019102643       -1.5174780131
 C          6.0263280326       -2.3288463225       -0.1387689936
 C          4.9143058577       -2.8126788712        0.5249954444
 C          2.6518836650       -4.8097928335        1.3192659244
 C          3.9396530906       -5.5159731907        1.4682314495
 C          4.6375578268       -5.9752027312        0.3558007807
 C          5.8445939926       -6.6312324987        0.5088523600
 C          6.3718357533       -6.8342639873        1.7730232660
 C          5.6833611398       -6.3806873642        2.8855287295
 C          4.4747406976       -5.7273734954        2.7352983251
 C          2.0516363803       -7.6952786113        2.2727232432
 C          2.0546380247       -8.8475206909        3.0359682011
 H          1.5484219290       -9.7342491233        4.9186097809
 H          0.6102235342       -7.6460166044        5.8405026127
 H          0.6055119718       -5.5927044510        4.4844940129
 H         -0.5600687734       -4.9322368511        2.3734549036
 H         -2.1912045893       -4.4206368800        0.4899432189
 H         -4.3348528788       -3.1969727633        0.3755061805
 H         -8.1555871028       -2.4492718589        1.7853840223
 H        -10.6070420504       -2.6424587767        2.1781095512
 H        -12.0704314072       -0.7347855376        1.6172216891
 H        -11.1590404213        1.2932841616        0.6710964412
 H        -10.3978294180        2.8272719675       -0.2699410611
 H         -9.4458505675        4.7636193268       -1.3688761437
 H         -7.0119034089        4.8892759253       -1.7957730764
 H         -5.5508503461        3.0785071503       -1.0472679283
 H         -4.5696185637        3.0165821060        1.3688097732
 H         -2.6469325749        4.4998802368        0.9230837838
 H          0.7479033463        2.3165160516       -0.1902813003
 H          2.8312035110        3.5595752939       -0.5101790183
 H          4.5558034506        9.8864291774       -1.1126684532
 H          6.9509630978        9.9823802779       -1.7473353677
 H          8.1540652378        7.9729986605       -2.4379462794
 H          7.0313347377        5.7694426476       -2.5137547346
 H          2.9432746388        4.2462761590       -3.6329944671
 H          3.3913505265        1.9222941323       -4.3465625689
 H          5.1820757717        0.6209199266       -3.2608562179
 H          6.5667985092        1.6601903855       -1.5059823832
 H          6.1303030731        3.9883564630       -0.8034944725
 H          0.5985431388        7.0525120444       -1.5239045527
 H         -1.5094797083        5.8102087352       -1.1408911331
 H         -1.1048923589        1.6537965724       -1.8592400510
 H         -3.0608696056        0.2046109163       -1.4716275392
 H         -2.3465997868        0.3772053268        1.6018816779
 H         -0.2195329376       -0.8172118723        1.6492125769
 H         -0.3443687786       -2.5367640281       -1.6189174403
 H         -0.3795026405       -0.6371530372       -3.1794711651
 H          1.2636572281        1.1985324954       -2.9317337312
 H          2.9004617643        1.1324332891       -1.0973821329
 H          2.9062198751       -0.7429598432        0.4895802330
 H          2.8906635921       -3.3341986927       -2.1269850578
 H          4.8705622723       -2.4793876276       -3.3072317455
 H          6.8836435170       -1.8242384969       -2.0349866672
 H          6.9061479214       -2.0498270808        0.4227072928
 H          4.9242440448       -2.9052384379        1.6013819685
 H          4.2248830935       -5.8259904994       -0.6314088322
 H          6.3755140889       -6.9863518868       -0.3622924050
 H          7.3155313384       -7.3457863120        1.8910415342
 H          6.0897405388       -6.5360842390        3.8743120269
 H          3.9409153136       -5.3694260977        3.6039294820
 H          2.4435287033       -7.7133996697        1.2667982757
 H          2.4586474617       -9.7609435768        2.6247770500
  130
       -200.01861468
 C          5.4336825156        1.6543498683        0.8471901729
 C          5.6830543724        0.6507696965       -0.0747404570
 C          4.7905826269       -0.3940332312       -0.2263086327
 C          3.6303862946       -0.4521935747        0.5424577578
 C          2.6931734620       -1.5851773940        0.4220166949
 C          1.3350704930       -1.3439712865        0.2638691215
 C          0.4191221586       -2.3823165294        0.1355443979
 C         -1.0103896981       -2.0538051825        0.0096466554
 C         -1.9763716112       -2.6857050565        0.7895240067
 C         -3.3002115867       -2.2984167191        0.7246191580
 C         -3.6856452391       -1.2579458464       -0.1137139164
 C         -5.0384658315       -0.7050540338       -0.0624234709
 N         -6.1602218000       -1.3162740662       -0.3210161920
 C         -7.1363071611       -0.3723705102       -0.1837601412
 C         -8.5319466220       -0.5117528728       -0.4200942034
 C         -9.0778437831       -1.7257662299       -0.8508645879
 C        -10.4192186928       -1.8256615862       -1.1226868553
 C        -11.2343381480       -0.7057507381       -0.9688594488
 C        -10.7104798059        0.4905191354       -0.5379158937
 C         -9.3462093428        0.6313356904       -0.2411414414
 C         -8.7715601072        1.8745516613        0.2428850755
 C         -9.5619052190        2.9989558458        0.5208980809
 C         -9.0237101626        4.1623851838        1.0181759731
 C         -7.6591068673        4.2496335011        1.2776798383
 C         -6.8479681188        3.1744841593        1.0115058435
 C         -7.3752865800        1.9896404401        0.4793153241
 C         -6.5786020352        0.8492372229        0.1871390031
 N         -5.2255824786        0.6254759675        0.2595700651
 C         -4.1434227740        1.4976014177        0.4620121756
 C         -3.1855360616        1.1776823747        1.4187326172
 C         -1.9955401237        1.8725938495        1.4624085340
 C         -1.7382282371        2.9074443777        0.5644286796
 C         -0.3998925413        3.5040098476        0.4982170962
 C          0.1485464792        3.8457156787       -0.7375719805
 C          1.4523270623        4.2816806978       -0.8428196606
 C          2.2561397576        4.3728369317        0.2920952095
 C          3.6558769837        4.7546919514        0.2314985402
 N          4.2589968554        5.3964859895        1.1973326767
 C          5.5395162355        5.6107137928        0.7728171714
 C          6.6028308498        6.2505035445        1.4021322575
 C          7.8023286292        6.3136412748        0.7262254709
 C          7.9607435281        5.7448216239       -0.5398813056
 C          6.9202098321        5.1042340731       -1.1821779971
 C          5.7029678787        5.0594376001       -0.5207256681
 N          4.4818816538        4.5156490867       -0.8485857451
 C          4.2158713886        3.7845952203       -2.0175021315
 C          4.5407320160        4.3304541469       -3.2549195390
 C          4.3034262862        3.6067281022       -4.4097662565
 C          3.7425953151        2.3428162309       -4.3374115052
 C          3.4135730522        1.8036173054       -3.1039396702
 C          3.6474729799        2.5165107180       -1.9437407667
 C          1.6889336084        4.1067827671        1.5387717912
 C          0.3840781929        3.6759600480        1.6394035717
 C         -2.7483292072        3.2838525413       -0.3213635873
 C         -3.9362212862        2.5845722040       -0.3820330185
 C         -2.7328674523       -0.6630533126       -0.9374992931
 C         -1.4133569197       -1.0562225591       -0.8745656816
 C          0.8739906491       -3.7050072591        0.1615358009
 C         -0.0720433001       -4.8253902822       -0.0105174808
 C         -0.1733408501       -5.8300036161        0.9468482752
 C         -1.0588370625       -6.8767839962        0.7712019922
 C         -1.8507796547       -6.9364871624       -0.3631679196
 C         -1.7571717547       -5.9398899564       -1.3199781723
 C         -0.8759126186       -4.8897335779       -1.1444633150
 C          2.2374502633       -3.9606743585        0.3326871422
 C          2.7176187264       -5.3579295147        0.3807264058
 C          3.3869143131       -5.8335572540        1.5031759292
 C          3.8305520084       -7.1416610874        1.5513881011
 C          3.6141953745       -7.9896979964        0.4784607947
 C          2.9489371127       -7.5236779027       -0.6428251105
 C          2.5009995448       -6.2168872659       -0.6916242909
 C          3.1487935061       -2.9087883483        0.4643866301
 C          4.5800225306       -3.2066526817        0.6694234109
 C          5.2429857760       -2.7181850891        1.7908419370
 C          6.5773997254       -3.0120874968        1.9983632270
 C          7.2675011564       -3.7941279621        1.0875860942
 C          6.6165058908       -4.2793830751       -0.0340590269
 C          5.2813054558       -3.9893621639       -0.2422944368
 C          3.3707977363        0.5804998597        1.4402854614
 C          4.2699466200        1.6205875980        1.5971262460
 H          6.1378179515        2.4631777567        0.9768313497
 H          6.5800355847        0.6803119766       -0.6758043725
 H          4.9906629302       -1.1701234009       -0.9492605397
 H          0.9792770594       -0.3233081569        0.2437002432
 H         -1.6824364348       -3.4639659645        1.4765636773
 H         -4.0408720310       -2.7767692525        1.3475362285
 H         -8.4095732554       -2.5645594295       -0.9685664830
 H        -10.8432384484       -2.7600222408       -1.4595679145
 H        -12.2891937751       -0.7769508828       -1.1912412839
 H        -11.3779343000        1.3316498068       -0.4377325020
 H        -10.6263711754        2.9608206349        0.3552708746
 H         -9.6646314095        5.0075480358        1.2212325717
 H         -7.2412135475        5.1556402120        1.6910540170
 H         -5.7930195578        3.2322826870        1.2304879993
 H         -3.3604473654        0.3532344280        2.0927848058
 H         -1.2352441618        1.5728385424        2.1668920066
 H         -0.4444753431        3.7381697575       -1.6333446270
 H          1.8422229073        4.5515471272       -1.8118260370
 H          6.4795206470        6.6771850800        2.3844663730
 H          8.6459367489        6.8089937663        1.1835448525
 H          8.9220472341        5.8093802861       -1.0276225289
 H          7.0518486262        4.6550532847       -2.1552188376
 H          4.9620534538        5.3235384161       -3.3062196900
 H          4.5539700319        4.0352785890       -5.3685828983
 H          3.5598767987        1.7808188708       -5.2406558561
 H          2.9775030127        0.8178126501       -3.0404602160
 H          3.3905297182        2.1005062130       -0.9834668385
 H          2.2978905703        4.2400380771        2.4186214532
 H         -0.0384448668        3.4762852673        2.6129597084
 H         -2.5941622458        4.1213610333       -0.9846575411
 H         -4.6950985408        2.8519599508       -1.1029263219
 H         -3.0280665161        0.1183255984       -1.6220322555
 H         -0.6823114741       -0.5823858543       -1.5134298154
 H          0.4373856737       -5.7822620666        1.8366931051
 H         -1.1310869548       -7.6493032394        1.5228968975
 H         -2.5398871307       -7.7564356156       -0.5004394314
 H         -2.3732528241       -5.9808668553       -2.2061265168
 H         -0.8005654816       -4.1143733168       -1.8932736539
 H          3.5512107481       -5.1745010933        2.3433641920
 H          4.3469862441       -7.5005940502        2.4296368785
 H          3.9627578819       -9.0111125991        0.5163347649
 H          2.7776196186       -8.1810136126       -1.4827482981
 H          1.9855709611       -5.8537481112       -1.5690957247
 H          4.7034663276       -2.1136072922        2.5056085758
 H          7.0802724808       -2.6307890363        2.8750620808
 H          8.3096411736       -4.0248228391        1.2514511919
 H          7.1504865199       -4.8881944577       -0.7490267702
 H          4.7774673203       -4.3642710416       -1.1212965751
 H          2.4700407117        0.5530732429        2.0370804397
 H          4.0660114286        2.4075081191        2.3072484763
