  85
       -125.67615185
 C          3.7534909956        4.3200665680       -0.1361470726
 C          2.2923388225        3.9270905815        0.0970254234
 C          1.8294139988        4.5639535279        1.4150213218
 C          1.4577508947        4.4804795708       -1.0664434556
 C          2.0909895528        2.4217192737        0.1782930946
 C          3.1403965907        1.5252579719        0.0560967440
 C          2.9135602678        0.1475310649        0.0996246383
 C          1.6120950343       -0.3534554843        0.2767769306
 C          0.5671803525        0.5680347422        0.4643569934
 C          0.8046626994        1.9337088225        0.3854617642
 N         -0.7183479467        0.0869570972        0.6807322624
 C         -1.6335348557        0.8100547780        1.4516957505
 C         -1.2002078318        1.6097140245        2.5093319648
 C         -2.1097165782        2.3094876533        3.2760235630
 C         -3.4660240002        2.2084766097        3.0128096977
 C         -3.9052353863        1.3784959933        1.9973696652
 C         -3.0025034546        0.6675628654        1.2222843008
 C         -3.4537404284       -0.2418930636        0.1065923666
 C         -4.8778130739       -0.7084736193        0.2830363160
 C         -5.4075269902       -1.4698890799        1.3034617781
 C         -6.7598582795       -1.7814260033        1.2668919666
 C         -7.5626819442       -1.3365431850        0.2268141051
 C         -7.0353256501       -0.5709916373       -0.8008678174
 C         -5.6864237644       -0.2570505304       -0.7690105244
 C         -4.8618813228        0.5149596551       -1.6849896336
 C         -5.1838796361        1.1679599496       -2.8628918631
 C         -4.1821137539        1.8399095780       -3.5446860318
 C         -2.8835952810        1.8562708968       -3.0599244007
 C         -2.5537877401        1.2027153159       -1.8796326821
 C         -3.5476561690        0.5357330060       -1.1967676888
 C         -2.4714347870       -1.3846719782       -0.0376450044
 C         -2.8874534842       -2.6125123038       -0.5156255016
 C         -1.9673081344       -3.6224490208       -0.7561791356
 C         -0.6296817927       -3.4004500860       -0.5142780733
 C         -0.1609970491       -2.1842511780       -0.0086581917
 C         -1.1111561367       -1.1653522975        0.2156448581
 B          1.3298381745       -1.8404463292        0.2155195710
 C          2.5825979067       -2.7312728279        0.2718833381
 C          2.5694000967       -4.1137627005        0.4940858745
 C          3.7166087148       -4.8737799480        0.4958069443
 C          4.9401280353       -4.2558826229        0.2648652802
 C          5.0048422506       -2.8949636704        0.0768990792
 C          3.8425347138       -2.1099103010        0.1018130959
 N          3.9609505722       -0.7397267282       -0.0421033526
 C          5.2502247818       -0.1955259071       -0.3167133123
 C          5.6533459790       -0.0118008616       -1.6326993503
 C          6.8991292347        0.5275626012       -1.9022637568
 C          7.7420907036        0.8843394862       -0.8629328207
 C          7.3396701999        0.7016895196        0.4500968721
 C          6.0955602379        0.1633827562        0.7264196582
 H          4.1254116191        3.9073406646       -1.0710132791
 H          4.3863351074        3.9790065435        0.6798107852
 H          3.8319661200        5.4039407368       -0.1917149576
 H          1.9795605900        5.6409986642        1.3844122706
 H          0.7761045932        4.3719953404        1.5981199496
 H          2.4013699405        4.1598350716        2.2478814863
 H          1.7637559796        4.0155646344       -2.0014023764
 H          1.6005974422        5.5555613975       -1.1522363911
 H          0.3985901000        4.2890747297       -0.9201292408
 H          4.1447724827        1.8837652817       -0.0808447675
 H         -0.0260812481        2.6157570611        0.4712158694
 H         -0.1456994707        1.6725031479        2.7294803157
 H         -1.7577983181        2.9304058114        4.0864941335
 H         -4.1787572142        2.7645875240        3.6023058620
 H         -4.9619855485        1.2829926388        1.7992301666
 H         -4.7818672312       -1.8162655005        2.1134148876
 H         -7.1921461997       -2.3772480199        2.0573486838
 H         -8.6124942458       -1.5910985409        0.2189280405
 H         -7.6641942405       -0.2271649832       -1.6086155228
 H         -6.1946134889        1.1550698702       -3.2429829341
 H         -4.4143436775        2.3558050737       -4.4649228453
 H         -2.1160647226        2.3844253568       -3.6069251073
 H         -1.5377131909        1.2209112144       -1.5175669833
 H         -3.9329687425       -2.7745627825       -0.7303067289
 H         -2.3035830664       -4.5707233095       -1.1493277485
 H          0.0852067710       -4.1749378173       -0.7445479896
 H          1.6207323660       -4.5898977387        0.6902701298
 H          3.6712538425       -5.9385208626        0.6711612675
 H          5.8486742747       -4.8402511082        0.2465658410
 H          5.9669832858       -2.4303821372       -0.0781890796
 H          4.9862127518       -0.2939844265       -2.4339277944
 H          7.2115704394        0.6690093978       -2.9261334164
 H          8.7133629249        1.3046830289       -1.0757174885
 H          7.9960458918        0.9788276386        1.2614795181
 H          5.7695685051        0.0154253484        1.7456696467
