85
 energy: -125.634853900087 gnorm: 0.000037912228 xtb: 6.7.1 (edcfbbe)
C            1.79267945459334        4.62929480952978        1.17943296443179
C            2.26814113031050        3.93257964846224       -0.10490624805648
C            1.43792821198983        4.42834626053997       -1.29906309598299
C            3.73045833572940        4.32021086559165       -0.34517849319031
C            2.07736198352253        2.43143758125021        0.04441957004545
C            3.13437115158554        1.52278843287521       -0.04327256525778
C            2.92187575572326        0.14343222468924        0.05186978649959
C            1.62571400537032       -0.37699380974167        0.22016483379458
C            0.58590642795083        0.55029785089532        0.39877462595002
C            0.80220388277255        1.92433356727607        0.27467906681362
N           -0.70282856391295        0.06752290904476        0.63617023584012
C           -1.58410228262431        0.79643990947640        1.41339619179019
C           -1.11711809904555        1.63535826784563        2.43740643812085
C           -2.00041356352270        2.36872725120120        3.19613326224436
C           -3.36754149708406        2.27741149473818        2.96162341889498
C           -3.83994721845592        1.41656029335470        1.98316296844201
C           -2.96895686924781        0.66171538475563        1.21755487594402
C           -3.45789081717986       -0.25455557702112        0.12705933561076
C           -4.86176839892885       -0.74992591023783        0.39158287575170
C           -5.30752598580547       -1.52795753900683        1.43788196203752
C           -6.65538280446188       -1.86216499392975        1.49101113167995
C           -7.53494177491831       -1.41840121002126        0.51326502222393
C           -7.09243177254098       -0.63403891393420       -0.53918897678232
C           -5.74726407187675       -0.29928690241455       -0.59983047700134
C           -5.00008242182599        0.48918323009084       -1.56300849401964
C           -5.40542707255139        1.14076209350873       -2.71850964290169
C           -4.45947825059770        1.82714624232557       -3.46208824061645
C           -3.13064033407709        1.86010397211328       -3.06601326080107
C           -2.71659733683503        1.20610592507709       -1.91118704437649
C           -3.65481983617456        0.52913305969400       -1.16498918421398
C           -2.46979521938743       -1.37586733337984       -0.09708634433406
C           -2.90065803260951       -2.58878828803948       -0.62083644947391
C           -1.97535009101669       -3.58175150836350       -0.91661526852983
C           -0.63287216536789       -3.37494995963594       -0.68722348432754
C           -0.13952040550250       -2.18131372214799       -0.13573590528949
C           -1.10651467390424       -1.16547374706159        0.12664038000747
B            1.34305411506056       -1.86128518791314        0.11394817222207
C            2.59671445077733       -2.74655064645541        0.11991294577104
C            2.59834543253153       -4.14518341055350        0.25050745187146
C            3.75813260977554       -4.89180176758426        0.28149887650720
C            4.99068991455240       -4.25733772468340        0.19198393894811
C            5.04322404322828       -2.87774909266045        0.08831803770428
C            3.87294570579597       -2.11463604859501        0.05099434967687
N            3.98645210491086       -0.73319892397248       -0.03992808918077
C            5.29027911741523       -0.17074893648645       -0.17094172530996
C            5.89895753844066       -0.12368332332501       -1.41971015042376
C            7.15606898055177        0.43974364086401       -1.55065577201785
C            7.80716110343189        0.95690655972844       -0.44219042954414
C            7.19984279538620        0.90922075720445        0.80248103415258
C            5.94288124077996        0.34778374362207        0.94183024512261
H            2.36006946962121        4.26879369109949        2.03540477114673
H            0.73805149021612        4.44352496063933        1.36424684210732
H            1.93849510094782        5.70442986162847        1.09797144511153
H            1.74671185628992        3.91944676695806       -2.21025998415825
H            0.37701133321211        4.24619153040174       -1.14893511320280
H            1.58139478425062        5.49816043709577       -1.43617134796211
H            4.36062569686168        4.01111494013351        0.48588342171365
H            3.80604535162583        5.40174837029273       -0.43891171902277
H            4.10891931780875        3.87728104734482       -1.26386129573047
H            4.13185437331075        1.88410630177798       -0.22123087278705
H           -0.04600309754939        2.59059195402799        0.32036390927077
H           -0.05767688577307        1.67813070026510        2.63997566868395
H           -1.62751497357488        3.00917630970673        3.98154394077354
H           -4.06136106575500        2.86049515863438        3.54732837151196
H           -4.90273962623340        1.33177984219808        1.81104096217998
H           -4.62307079957924       -1.87301667178312        2.19984655682891
H           -7.02199474129823       -2.47396838985663        2.30244089340896
H           -8.57928532654518       -1.68970118102351        0.57517049617516
H           -7.78106205253683       -0.29133590334094       -1.29746960446018
H           -6.43833034954991        1.11260284311508       -3.03324856247988
H           -4.75890741685925        2.34149068504432       -4.36420826440855
H           -2.40707048041234        2.39745240714630       -3.66170318983427
H           -1.67725112729188        1.22845170244697       -1.61846112603357
H           -3.95083189249384       -2.74830122052053       -0.81221988589806
H           -2.31812851037729       -4.51896391910574       -1.33328586341273
H            0.07025066558630       -4.14883404176340       -0.95316441048823
H            1.64974086891607       -4.64906157555198        0.35638708412989
H            3.71092375670242       -5.96753686297666        0.38296425851175
H            5.90703531600559       -4.82880833014066        0.21428069459354
H            6.00850107507336       -2.39661486625747        0.03833657168020
H            5.38170870114308       -0.53027260812116       -2.27629472077004
H            7.62671256114925        0.47673638384588       -2.52181858444280
H            8.78754611529530        1.39629019520440       -0.54836234470822
H            7.70578005263158        1.30991144441616        1.66824332477467
H            5.45919397327131        0.30515632737837        1.90672826835459
