85
 energy: -125.721722037286 gnorm: 0.000057180547 xtb: 6.7.1 (edcfbbe)
C            3.76214187906074        4.31719534995688       -0.16343859879456
C            2.30090185291434        3.92915980408283        0.08393054102175
C            1.84943773847463        4.58085974959217        1.39949302003407
C            1.45957552853489        4.47306622974625       -1.08058095365793
C            2.09699466405962        2.42378686747205        0.17935346446596
C            3.14450324048935        1.52475192311545        0.05756141322682
C            2.91994938278851        0.14672202068405        0.10668343732370
C            1.61696228910840       -0.35366823922640        0.27809524381292
C            0.57257611904766        0.56875996643237        0.46662955289049
C            0.81117842365431        1.93445434392173        0.39361256041653
N           -0.71553940572740        0.08538453986634        0.67668984134495
C           -1.63330298276778        0.80083577242428        1.45390408844417
C           -1.20151708365607        1.58476938875942        2.52399145444318
C           -2.11078888727392        2.28189509255212        3.29361503253968
C           -3.46610772018773        2.19407436417331        3.01961392046358
C           -3.90400337492767        1.37665350248011        1.99337743269412
C           -3.00177319601510        0.66585336533970        1.21618689309739
C           -3.45601494198983       -0.23723620741462        0.09461574106851
C           -4.87654493464673       -0.71435330867295        0.28390614424963
C           -5.38934899155759       -1.49043431220615        1.30245224588841
C           -6.74072890963741       -1.80875214986019        1.28006659584449
C           -7.55991237288158       -1.35473757287759        0.25651618407200
C           -7.04999515277992       -0.57375250071102       -0.76869798150644
C           -5.70158154472604       -0.25447560194380       -0.75220083464209
C           -4.89195966795109        0.52870860669678       -1.67302393746997
C           -5.23089749414341        1.18889868910495       -2.84270842187945
C           -4.23943526650460        1.86636021733929       -3.53474785005231
C           -2.93384962341116        1.88148255671666       -3.06858076937566
C           -2.58759929017313        1.22076622342378       -1.89671861804146
C           -3.57086433867957        0.54921694721246       -1.20258883560619
C           -2.46889333867158       -1.37448224247571       -0.06888742953683
C           -2.88167486137294       -2.59417923684008       -0.57213638424237
C           -1.96124149214921       -3.60027506526125       -0.82669835459185
C           -0.62489335872065       -3.38417219560759       -0.57086592374557
C           -0.15825866849883       -2.17747647173579       -0.04104906555844
C           -1.10889035617089       -1.16051291118900        0.19308389969972
B            1.33256183192032       -1.83963034853157        0.20118935877074
C            2.58386345525623       -2.73301139423503        0.26432869929361
C            2.56663486664278       -4.11658676110507        0.48280772663369
C            3.71364399857731       -4.87716287034788        0.50672328002866
C            4.94221572330768       -4.25811038509313        0.30541489703300
C            5.00996300264544       -2.89687596935497        0.11938443612649
C            3.84721024494851       -2.11139255807712        0.11712872683540
N            3.96906115818591       -0.74087966294656       -0.02835159010986
C            5.26281824922955       -0.19794614512349       -0.29794815352417
C            5.69128298908972       -0.06159825796459       -1.61185546760072
C            6.93990520932619        0.47488436374787       -1.87620725978247
C            7.75953014962649        0.87680772045534       -0.83439173764216
C            7.33076110581123        0.74244401446634        0.47643900980490
C            6.08439911225484        0.20584131181915        0.74791441408855
H            4.12749171883336        3.89618937738618       -1.09765929946719
H            4.40109620793657        3.98329433909867        0.65117278731048
H            3.84147465024541        5.40067772283445       -0.22918360771649
H            2.00384126618118        5.65713492891523        1.35624325612731
H            0.79599891070333        4.39665843486551        1.59227217262251
H            2.42551681402832        4.18310567100464        2.23293216812339
H            1.75136633476978        3.99117994509489       -2.01196259498947
H            1.61227869487172        5.54550192951024       -1.18371962047915
H            0.39920276602046        4.29565647971358       -0.92213326988217
H            4.14865231897179        1.88241814257906       -0.08504554346935
H           -0.01989729633551        2.61644716831750        0.48525049805962
H           -0.14738639072991        1.63785460707594        2.75059309333736
H           -1.75940690065135        2.89118507830478        4.11329098895943
H           -4.17991197650529        2.74890979307807        3.60959306736607
H           -4.96092268882041        1.28986386290993        1.78898188573109
H           -4.75150852590867       -1.84344052507523        2.10036343780604
H           -7.15887974854415       -2.41660230380779        2.06937878781059
H           -8.60893930390563       -1.61415747797569        0.25959963111953
H           -7.69162511887411       -0.22301557109192       -1.56354059041962
H           -6.24678318842394        1.17630089869460       -3.20937074681615
H           -4.48576895040172        2.38748268606693       -4.44882880825920
H           -2.17368509091707        2.41251993206311       -3.62319464600697
H           -1.56594409227061        1.23515016543190       -1.54824452018783
H           -3.92678121473319       -2.75326428507324       -0.79498161954676
H           -2.29678943148299       -4.54098921029467       -1.23915481044228
H            0.09025311711518       -4.15706142205765       -0.80785687355035
H            1.61410010534159       -4.59430462586956        0.65764657377056
H            3.66450697550224       -5.94295614263885        0.67818322151230
H            5.85188674948637       -4.84200946911249        0.30900097028309
H            5.97555373091030       -2.43131302685330       -0.01074018851146
H            5.04333972857914       -0.37753708264825       -2.41632386857458
H            7.27217460601063        0.57930040793012       -2.89845020913923
H            8.73265126672610        1.29541600563899       -1.04349149524530
H            7.96806011934233        1.05560642633574        1.29013334288918
H            5.73914227172887        0.09586408500912        1.76567455836370
