85
 energy: -125.634853390763 gnorm: 0.000063265167 xtb: 6.7.1 (edcfbbe)
C            3.74911405331347        4.30295827146864       -0.21669704734867
C            2.28588989080322        3.91859072962628        0.02317731149673
C            1.82161861153883        4.58689442178777        1.32654360190621
C            1.45206925658864        4.44725406333322       -1.15421776420757
C            2.08701854920880        2.41559569720824        0.13901047921061
C            3.13972322212443        1.50367472180483        0.03588781135339
C            2.91970058463630        0.12380539121181        0.10246097784635
C            1.62134966511100       -0.39316803836787        0.26407691428202
C            0.58460889136895        0.53553044701723        0.45268756501068
C            0.80836553158069        1.91059067649798        0.35325864648916
N           -0.70890643764121        0.05559694205712        0.66881557492556
C           -1.59897450229868        0.78163423921416        1.43889671580295
C           -1.14489458035114        1.60352388057534        2.48232581981416
C           -2.03656989417629        2.33637483999039        3.23175366998314
C           -3.39947422184825        2.26110610316554        2.96850783192990
C           -3.86010677364230        1.41590329721560        1.97093528276581
C           -2.98084298525666        0.66172408042647        1.21423881791702
C           -3.45536003401867       -0.23807886965195        0.10397719192437
C           -4.87010785597617       -0.72068028442914        0.33093653481889
C           -5.34905459789461       -1.50197736750627        1.36001972644533
C           -6.70107245785729       -1.82311416004388        1.37762918253832
C           -7.55199609543109       -1.36332180939513        0.38206223187529
C           -7.07616908340999       -0.57546306479316       -0.65305235247666
C           -5.72668727117665       -0.25367995326875       -0.67820087617117
C           -4.94867584551365        0.53434148888983       -1.61682942509690
C           -5.31942859905074        1.19742134401139       -2.77743037438974
C           -4.34918699603258        1.87941181606208       -3.49314147274140
C           -3.03025644462490        1.89714501777719       -3.06430068105869
C           -2.65078537124892        1.23161625823404       -1.90415442158433
C           -3.61322889769202        0.55854129863549       -1.18575929409458
C           -2.47365274001408       -1.36716097239286       -0.10943750456365
C           -2.90485096805305       -2.57313952327894       -0.64871144274733
C           -1.98201905520529       -3.57086276812750       -0.93640288783226
C           -0.64157163753798       -3.37428515398189       -0.68728484966854
C           -0.14822043430379       -2.18743331862221       -0.12118182652288
C           -1.11273002428395       -1.16853438568072        0.13820196409314
B            1.33350384700217       -1.87545450166706        0.14121352430943
C            2.58374943850894       -2.76551270871216        0.13976455629135
C            2.58115188834003       -4.16497238726436        0.26080196981733
C            3.73854946261143       -4.91586339092854        0.27626015212245
C            4.97257483821032       -4.28542916853370        0.17847907519929
C            5.02944172561289       -2.90528175106825        0.08446807940080
C            3.86161827760856       -2.13773325224365        0.06669776885767
N            3.97915161724541       -0.75608588989150       -0.01193806423722
C            5.28222530613655       -0.19913682268505       -0.17425556653938
C            5.84308732070786       -0.12340645491697       -1.44370588892939
C            7.09969776762327        0.43252740169370       -1.60782209440530
C            7.79734290821652        0.91385001305492       -0.51169591672195
C            7.23689981195139        0.83898484852218        0.75344128907661
C            5.98083132346472        0.28451437830767        0.92603272893973
H            4.12021773679675        3.87600957505190       -1.14592282739147
H            4.38183054310240        3.97406923170020        0.60476994664190
H            3.83034881313745        5.38571396900566       -0.28917411027623
H            1.96922644453343        5.66332301546898        1.26873336819615
H            0.76795381493612        4.39873445961682        1.51457174526100
H            2.39438015392945        4.20554906633318        2.16978213783343
H            1.74837495262432        3.95321128474716       -2.07767681290897
H            1.60622604359303        5.51797576759287       -1.27099433375825
H            0.39030975207829        4.27400051423537       -0.99972675293665
H            4.13965768818121        1.86353695957265       -0.13073442363872
H           -0.03655205900097        2.58040988496437        0.40588538087088
H           -0.08934720226791        1.63352885995273        2.70661533708546
H           -1.67379524529896        2.96413102325286        4.03201855080050
H           -4.09943443722774        2.84446790335952        3.54657072375743
H           -4.91992925968330        1.34330430113036        1.77636845912467
H           -4.68690018473172       -1.85962071919773        2.13579068102134
H           -7.09345606121937       -2.43717542481717        2.17522111867366
H           -8.60014205373671       -1.62473212080167        0.41611631245320
H           -7.74252954692976       -0.22013442007546       -1.42530252102042
H           -6.34451835218755        1.18109547194520       -3.11748130333021
H           -4.62153050654313        2.40217730063873       -4.39900970508717
H           -2.28712018393988        2.43127518513394       -3.63840933848560
H           -1.61861539110740        1.24233587959541       -1.58654610451201
H           -3.95284116224340       -2.72392991704855       -0.85820335317633
H           -2.32498902883209       -4.50308611309685       -1.36399546013347
H            0.06039260279207       -4.15060556978172       -0.94912671323779
H            1.63153244487177       -4.66612782415839        0.37081778963477
H            3.68833214349098       -5.99210330546472        0.37070369027676
H            5.88681777293863       -4.86063044281515        0.18655010208603
H            5.99585554361261       -2.42717157634084        0.02715703837109
H            5.28938366855246       -0.50180664365761       -2.29039714558876
H            7.53324535805979        0.49143869410182       -2.59504965658561
H            8.77728110284850        1.34728420283147       -0.64346651133473
H            7.77911014431956        1.21258435143231        1.60929047154230
H            5.53371099235155        0.22054502606275        1.90726965591046
