85
 energy: -125.721767662571 gnorm: 0.000034239592 xtb: 6.7.1 (edcfbbe)
C            1.66234070536558        3.67621890192877       -1.97151734100684
C            2.47423595722271        3.31664777176191       -0.71801114169748
C            3.96008259560360        3.48886687836859       -1.04910050657328
C            2.12324895530637        4.28300432040619        0.42303777211522
C            2.12389813932385        1.89730958441065       -0.29425367865571
C            3.07263450651788        0.88957643279912       -0.22576729435889
C            2.71241008290898       -0.41604273447831        0.11697359723393
C            1.37215880726129       -0.72956013363186        0.40472239111962
C            0.43161016292441        0.31579326983525        0.40094535619913
C            0.80260331955321        1.60142503382892        0.03064298658552
N           -0.89049353730770        0.02627783766286        0.72591119534304
C           -1.70444609953654        0.98277169384680        1.34320586633036
C           -1.15847884307293        1.92866773019054        2.21125319018442
C           -1.96576893192030        2.86462887953521        2.82552375585713
C           -3.33247821969511        2.86111541869358        2.59802891979343
C           -3.88622367279589        1.89287729775161        1.78017257801692
C           -3.08765195236079        0.94206256938528        1.16239312981610
C           -3.67172731655819       -0.12894050047632        0.27302565016097
C           -5.12090561710182       -0.41184765620540        0.59171901502489
C           -5.65899589185037       -0.89859406649004        1.76484146865548
C           -7.03300380637389       -1.08448836506049        1.83934670797797
C           -7.84907491974874       -0.78629753364931        0.75773798468039
C           -7.31353941568747       -0.29647580935897       -0.42311671145528
C           -5.94278894311817       -0.10936207433399       -0.50314691995756
C           -5.10429851032965        0.37576936695945       -1.58876316127748
C           -5.42935551694123        0.79772900534337       -2.86752489772065
C           -4.40953082609201        1.21037487976470       -3.71049957635790
C           -3.08998540596674        1.19855925840122       -3.28537820275068
C           -2.75758860106432        0.77601785620504       -2.00450903206550
C           -3.76856989464267        0.36848333367181       -1.16116317784040
C           -2.80487422212941       -1.36938632366711        0.33903336341704
C           -3.35306343497964       -2.61848727532717        0.11402507241206
C           -2.54589827824286       -3.74555771106896        0.06822481575921
C           -1.18688522220368       -3.61995870965287        0.25597692866837
C           -0.58542647624666       -2.38337920679280        0.50817757695447
C           -1.42196064544015       -1.24641563806336        0.52923106360614
B            0.93900033960595       -2.15954026411228        0.65410224880677
C            2.09628797566713       -3.14640724540283        0.88823582435666
C            1.94884025848447       -4.44498537886601        1.39255662900947
C            3.01252562953576       -5.30451306153651        1.54880095542349
C            4.28674826864788       -4.87848963053848        1.19080254825500
C            4.48393393806430       -3.59984707315937        0.72355580534856
C            3.40867725908866       -2.70818889321128        0.58868894457983
N            3.66279055761517       -1.41672688696991        0.16281122447017
C            4.99741080915912       -1.07367968998685       -0.21462501379383
C            5.39559938671096       -1.21070470774837       -1.53786158588310
C            6.68371494151110       -0.86403404243065       -1.90832765420885
C            7.57314272564137       -0.37998670373644       -0.96310299263358
C            7.17509232658515       -0.24310078823168        0.35711524894433
C            5.88909207010072       -0.58794625299052        0.73443948038402
H            0.59376344203820        3.63961069274970       -1.77729009791254
H            1.88735835802633        2.97991182478170       -2.77733133599037
H            1.91271696489022        4.68165479799221       -2.30398723382549
H            4.14488500160614        4.51716906787217       -1.35405443365320
H            4.58315351044821        3.27871600028867       -0.18251673787753
H            4.25798045620378        2.83706289373796       -1.86756484830749
H            2.67360721842805        4.01700594960102        1.32369379478415
H            1.06105270326220        4.25848916166009        0.65087498669734
H            2.38780984671574        5.30141229058593        0.14569676949472
H            4.10328426558029        1.10284648690702       -0.44682210136146
H            0.04674952395268        2.36968089654900       -0.02124694992278
H           -0.09642815822607        1.91980948804456        2.40453509004080
H           -1.52618846656822        3.59490392511452        3.48885568612859
H           -3.96590365914678        3.60052841951857        3.06442579677158
H           -4.95355421621475        1.87371865614074        1.61603529845542
H           -5.02310380150086       -1.13223983944778        2.60697740070710
H           -7.47125721568122       -1.46628089460215        2.75009592651757
H           -8.91585634206195       -0.93921468269711        0.83786160831926
H           -7.95294054030839       -0.06659811806497       -1.26265720344696
H           -6.45619067723216        0.80500786565258       -3.20247067946941
H           -4.64457306418136        1.54256501082803       -4.71163028672261
H           -2.30805752211333        1.52090159938839       -3.95776374721134
H           -1.72558044155308        0.76500758027293       -1.68771769339523
H           -4.41601452903800       -2.71128748110300       -0.05533187622334
H           -2.98648598736656       -4.71223641703998       -0.12930194122262
H           -0.56015920632666       -4.49552228711793        0.18233775548023
H            0.96158794880973       -4.76996122634522        1.68548801722100
H            2.86325002420077       -6.29987064629937        1.94209790371184
H            5.13094108493594       -5.54610000917407        1.29135225500006
H            5.48424510882464       -3.28025607930238        0.47199618913827
H            4.69230050144392       -1.58662897484241       -2.26646912429563
H            6.99200433985704       -0.97138879544760       -2.93771724383019
H            8.57691936322019       -0.10940821235352       -1.25488395292665
H            7.86684259736347        0.13449446974155        1.09546427662516
H            5.56678005072980       -0.48473937703745        1.76037632534534
