100
 energy: -160.140191890047 gnorm: 0.000111611978 xtb: 6.7.1 (edcfbbe)
N           11.87417795804082        3.81411434124139        1.61141623388274
C           10.88646579186571        3.27547073909492        1.38486313507499
C            9.66961988505991        2.61339762822746        1.10458225338812
C            8.45087207657366        3.25998599560410        1.35206782294388
C            7.28132884007189        2.59859729924927        1.07378317271526
C            7.29270815161518        1.29954157532728        0.55155046920849
C            8.51387021239541        0.64025164852334        0.29692962067978
C            9.69643626380215        1.32533181201591        0.58552564030869
C            8.50944372115180       -0.71167264306734       -0.24890988545771
C            9.68746048079988       -1.40736770317354       -0.53063194004100
C            9.65211667411404       -2.69504893420136       -1.05018739955921
C           10.86456179239392       -3.36747804298154       -1.32480253646833
N           11.84874110332472       -3.91390465830249       -1.54796913847881
C            8.42908270283896       -3.33074309771815       -1.30460531418602
C            7.26394943615521       -2.65879819159326       -1.03323298969776
C            7.28392670250528       -1.35984396306553       -0.51100500391189
C            6.03157611347304       -0.68706254265645       -0.24475712353365
N            4.89895704861205       -1.32333034504328       -0.49583163739824
C            3.75056964457859       -0.68106498375574       -0.24864145444269
C            2.51768452555440       -1.32183037670370       -0.47596513557645
C            1.32945628568239       -0.68100607090585       -0.22767824430370
C            0.06614152817221       -1.41426889702921       -0.39140080628543
C           -0.18469880350379       -2.15472401596514       -1.54533663621678
C           -1.36241761671084       -2.85526428340172       -1.69574488403556
C           -2.32244365525571       -2.85398164021042       -0.68142154470181
N           -3.51296539238395       -3.56489759692708       -0.82985555931602
C           -4.09048343816660       -4.21478488213320        0.26931439803927
C           -3.28789190918497       -4.83994246098225        1.22379319445239
C           -3.86251184038206       -5.48282723229394        2.30345908161577
C           -5.24034704659250       -5.52186082498550        2.44561277309285
C           -6.04211532130527       -4.90615405719153        1.49791931589386
C           -5.47652722610630       -4.25272475989410        0.41969113919135
C           -4.13017235151636       -3.63991065288337       -2.08698614210360
C           -4.73030760673838       -4.82454918972169       -2.51202941445378
C           -5.34308921379475       -4.88877195695011       -3.74897882049559
C           -5.36107149244148       -3.78146206109446       -4.58184697964304
C           -4.76258242076827       -2.60310012892207       -4.16534857682536
C           -4.15483397604901       -2.52661097968974       -2.92680362480742
C           -2.06458329102753       -2.12881777357608        0.48438522162262
C           -0.89213607339259       -1.41852944945956        0.62201677337709
C            1.33384075468256        0.67394514231582        0.23299819267344
C            0.07568225502546        1.41696163069263        0.39069138665076
C           -0.17128166168592        2.16689645198710        1.53943097087539
C           -1.34412290354062        2.87673505444485        1.68404491133437
C           -2.30388271464875        2.87487871625914        0.66931332198454
N           -3.48959193026817        3.59428333403687        0.81186227428712
C           -4.10383166063422        3.69068376436801        2.06909533707048
C           -4.69624525303971        4.88505840050320        2.47736915060947
C           -5.30707836555658        4.97122509438071        3.71393692811617
C           -5.33079359203490        3.87635914746685        4.56295632245747
C           -4.74006014678867        2.68836703284094        4.16306930405298
C           -4.13431055552935        2.58995060341321        2.92507091415684
C           -4.06881714023636        4.23071045014077       -0.29460725406044
C           -5.45511324256331        4.26710052438187       -0.44263164880276
C           -6.02271170020572        4.90680279301658       -1.52802902889156
C           -5.22260431484619        5.50997785019327       -2.48512909778017
C           -3.84449684681788        5.47273602799958       -2.34503350953280
C           -3.26789262821085        4.84360853705839       -1.25831546511058
C           -2.04978504798093        2.14001703889194       -0.49134214934881
C           -0.88185278907778        1.42144727434265       -0.62352704042676
C            2.52640799563519        1.30467590939777        0.48700748553567
C            3.75489162214568        0.65306251506831        0.26689153794331
N            4.90759178594324        1.28486248946875        0.52128938359431
C            6.03591536534277        0.63825764210399        0.27741468547257
H            8.44544959804261        4.26118390462233        1.75533951416606
H            6.32282364755590        3.06055242740237        1.25017290965380
H           10.65888216875498        0.87086343595717        0.41315144937400
H           10.65292800558034       -0.96157813256475       -0.35259311592906
H            8.41692885849846       -4.33190969271846       -1.70780451365012
H            6.30240564216959       -3.11206983381652       -1.21541223533703
H            2.53402983421837       -2.34474494697762       -0.82064319535025
H            0.54655620450195       -2.16476078947773       -2.34062990432630
H           -1.54548250927936       -3.41719278161782       -2.59984721422408
H           -2.21364737219918       -4.82150380466780        1.11006038032465
H           -3.22912607587852       -5.96550349041214        3.03362479088534
H           -5.68592237629776       -6.02930028330369        3.28803016725515
H           -7.11717831510469       -4.92736436746375        1.60262587430781
H           -6.10422018296875       -3.76661131097657       -0.31294191341063
H           -4.71015289126159       -5.69156121284053       -1.86779722467489
H           -5.80270482032999       -5.81300438117751       -4.06777202232063
H           -5.83830606742630       -3.83672303823056       -5.54875925760792
H           -4.77722783142153       -1.73294213035910       -4.80556132296368
H           -3.69820328157003       -1.60388462893092       -2.59893173073352
H           -2.79545070971770       -2.12375916216449        1.27943703860375
H           -0.70804339322233       -0.86788074128140        1.53232490291713
H            0.55917294174405        2.17710206249433        2.33546216019745
H           -1.52351805795581        3.44639244933115        2.58401933210919
H           -4.67166161774887        5.74225993854510        1.82026766925025
H           -5.76071603615959        5.90280104145931        4.01959014746961
H           -5.80642138253244        3.94866460040399        5.52953553080354
H           -4.75942029030449        1.82776093561858        4.81594130358804
H           -3.68384817057323        1.65968384439347        2.61025008532584
H           -6.08135971058581        3.79061827928343        0.29753327436941
H           -7.09796141382237        4.92675142344129       -1.63100146066247
H           -5.66966129831769        6.00634675494326       -3.33335279611546
H           -3.21249884951454        5.94589167424457       -3.08259080667511
H           -2.19344682563973        4.82645311208916       -1.14627717422341
H           -2.78007625309369        2.13394512614231       -1.28689783073218
H           -0.70068101664016        0.86446083109043       -1.53052434142420
H            2.54993630011337        2.32760381992416        0.83120516342707
