100
 energy: -160.098016943901 gnorm: 0.000051080997 xtb: 6.7.1 (edcfbbe)
N           11.08598792194912        4.25285804933344       -0.55819372601235
C           10.10909984872874        3.65101690291545       -0.48670763054360
C            8.91053697087967        2.91657521858751       -0.39904460851466
C            7.67137573875423        3.58359663459959       -0.47429326559881
C            6.51912199231373        2.85436468751238       -0.38614187678839
C            6.54846915702295        1.45688304627253       -0.22224939077489
C            7.79191872427448        0.77709199411379       -0.14605680269236
C            8.95892447890953        1.53942705336437       -0.23789521596558
C            7.80720095572232       -0.65891216909769        0.02134970103651
C            8.99010354363947       -1.39735494640360        0.10529409999441
C            8.97082967119908       -2.77524372296232        0.26610579536812
C           10.18456896597332       -3.48529534356835        0.34581785768500
N           11.17360830885565       -4.06766255205056        0.41113080293405
C            7.74608373771246       -3.46745776272906        0.34909644191865
C            6.57869618269986       -2.76169568696092        0.26925170423709
C            6.57851798547978       -1.36392275382296        0.10587733103980
C            5.32818333792536       -0.67480131522292        0.02873655052230
N            4.18563344161749       -1.34188328463052        0.10796635055937
C            3.01053366015949       -0.70465150109787        0.03893718641603
C            1.79706763232133       -1.38346164905480        0.10977519897669
C            0.58116343571586       -0.71535419424258        0.03748521515258
C           -0.66729231540515       -1.48837461684425        0.03876781129060
C           -1.65726901248468       -1.24410736904132       -0.91498803638561
C           -2.83418879289182       -1.95817313699095       -0.91422090831248
C           -3.06731544519602       -2.93993043470631        0.05299194668388
N           -4.27629503078446       -3.63542544100739        0.07681072570712
C           -5.46508088429577       -2.97823570822180       -0.26181826377188
C           -5.66526814081767       -1.64691656926716        0.10800315346630
C           -6.83711230290771       -0.99993682988408       -0.23188224019004
C           -7.82771112891024       -1.66656901048267       -0.93620456771790
C           -7.63615458364963       -2.99007083668182       -1.30111152118847
C           -6.46499076483866       -3.64486827159630       -0.97156810764162
C           -4.30479852484302       -4.98527583792898        0.44606158835516
C           -5.35742268633518       -5.48542249951014        1.21407991585481
C           -5.38061293135609       -6.81861984039003        1.57488300716370
C           -4.35933990291408       -7.67006356007798        1.18281419186399
C           -3.31112383927660       -7.17763364888221        0.42101905567500
C           -3.28076819623274       -5.84726737783299        0.05038032826322
C           -2.06896695753625       -3.20665968744572        0.99334750348618
C           -0.88643725055642       -2.49818877364993        0.97577239913392
C            0.56690274395113        0.68824139592696       -0.08577314196900
C           -0.69610577605439        1.44074842444820       -0.06312456958060
C           -1.63604504977223        1.22129220804748        0.94490854365172
C           -2.82079193015200        1.92374021319053        0.97436974058546
C           -3.10889346270964        2.86447758044877       -0.01702793769483
N           -4.32143512975986        3.55855860592661       -0.01041801792701
C           -4.88220037677557        3.98504826798036        1.19700407540022
C           -4.06392633226465        4.41857060947196        2.24208866653293
C           -4.62220680495621        4.83475261762463        3.43499096084747
C           -5.99791876780517        4.83200836739875        3.60564705075307
C           -6.81515690195547        4.40710837182996        2.56969701288544
C           -6.26712306676516        3.98407687751224        1.37443146994995
C           -4.97205651241843        3.82147489400970       -1.22205651396277
C           -4.97348130761334        2.86547684031564       -2.23914537656734
C           -5.61659301288714        3.12464060156879       -3.43383594041667
C           -6.26787652564526        4.33211853346806       -3.63255052667120
C           -6.26992359627500        5.28406804156591       -2.62478147719228
C           -5.62646770856560        5.03676513065291       -1.42751071728967
C           -2.16370427899503        3.10101406273013       -1.01768797525393
C           -0.97234129380109        2.40705078697772       -1.02983093715222
C            1.76718421349102        1.38037302483466       -0.17769781361803
C            2.99535525017990        0.72599042303036       -0.12357220023277
N            4.15640262456602        1.38636122215372       -0.20567598387449
C            5.31314662200249        0.74267243438565       -0.13470051016629
H            7.64969932636379        4.65560938413560       -0.60028335337542
H            5.55271260591860        3.33184876800674       -0.43930617302028
H            9.92964238311993        1.07149221039280       -0.18562846043839
H            9.95072072252732       -0.90971080469787        0.04696747670005
H            7.74700312493462       -4.53977077469803        0.47448008933971
H            5.62257025993235       -3.25860826546923        0.32895250851682
H            1.82340557847048       -2.45950202511436        0.19329568771312
H           -1.48627798115424       -0.50057895626897       -1.67853331597939
H           -3.58234009479738       -1.76950003368968       -1.66964220046420
H           -4.90006228714251       -1.13217050806080        0.66941250992962
H           -6.98228307174729        0.02819117295083        0.06458403839285
H           -8.74314312658903       -1.15833737271753       -1.19847431433049
H           -8.40089920480901       -3.51506354093568       -1.85426281928584
H           -6.31283990234442       -4.67220652942908       -1.26818904395979
H           -6.14770508820020       -4.82080945251925        1.53076597184794
H           -6.19745800686341       -7.19379253197219        2.17358957137107
H           -4.38017972247779       -8.71065710058662        1.46900655107951
H           -2.51500233739071       -7.83599871372036        0.10592905119393
H           -2.47020127244682       -5.46789080025454       -0.55441083805227
H           -2.23559209930020       -3.96116929319978        1.74789091645935
H           -0.13272547843470       -2.70118935196972        1.72248700270529
H           -1.42658723434863        0.49527798863700        1.71605556419166
H           -3.53950978230670        1.74172710530176        1.75959571306356
H           -2.99241092368375        4.43523117068058        2.10705798703915
H           -3.97854322856841        5.17220934817174        4.23404210047393
H           -6.42981267674296        5.16005488838921        4.53896397377148
H           -7.88777494138883        4.39770574820602        2.69628080205567
H           -6.90629856995354        3.64549145422105        0.57245885296047
H           -4.47595046847793        1.92010160286540       -2.08016082403643
H           -5.61628539974602        2.37565366205399       -4.21195917720852
H           -6.77043554719787        4.53045650700718       -4.56709739095685
H           -6.76863171353847        6.23018479929633       -2.77513389445825
H           -5.61783036237420        5.78422906090894       -0.64789124147191
H           -2.36872402657524        3.83927915318177       -1.77897981296214
H           -0.24938374565039        2.59999717624483       -1.80905256016595
H            1.77003527475045        2.45673546315523       -0.26203100677144
