100
 energy: -160.098017594216 gnorm: 0.000072796372 xtb: 6.7.1 (edcfbbe)
N           11.07102155862971        4.25637850421501       -0.66107294194588
C           10.09621549276375        3.65249613785966       -0.57921037746366
C            8.89958021991449        2.91651004301531       -0.47909511335974
C            7.65893640848776        3.57837066877463       -0.57350802621476
C            6.50831763616675        2.84840603585056       -0.47134977463423
C            6.54081791404151        1.45535801446693       -0.27396883951708
C            7.78574938400693        0.78042187161069       -0.18043526201631
C            8.95106219947569        1.54359529525705       -0.28603196141550
C            7.80400898067447       -0.65123278596141        0.02014007635428
C            8.98846247440222       -1.38560936117296        0.11744592160410
C            8.97207170366712       -2.75930719488552        0.31085626846100
C           10.18705034664509       -3.46573131401508        0.40337879382937
N           11.17655984109826       -4.04597981740577        0.47941572049094
C            7.74878599744092       -3.45144112857099        0.41381123177740
C            6.57993166237064       -2.74975170897239        0.32037008008263
C            6.57682020310213       -1.35642694166275        0.12312706005285
C            5.32494578316446       -0.67183456783413        0.03075122568433
N            4.18382980088563       -1.33891288859827        0.12810539858677
C            3.00738506235980       -0.70569376861102        0.04457972796795
C            1.79529378183463       -1.38459372063948        0.13405736630938
C            0.57769786783096       -0.72067571585466        0.04846769063425
C           -0.66906914583814       -1.49571801908005        0.07237522466664
C           -1.66888101773190       -1.26703074724953       -0.87518836177742
C           -2.84504245731560       -1.98193565920598       -0.85166303271518
C           -3.06615282722802       -2.95075888815823        0.13105134544050
N           -4.27481355459476       -3.64647903589083        0.17777037733222
C           -5.46833611200802       -2.98826429998147       -0.14021015931491
C           -5.65512212561897       -1.65326515923239        0.22379888199073
C           -6.83125489822157       -1.00356417481300       -0.09529651754907
C           -7.83989324066438       -1.67101391136480       -0.77279353918952
C           -7.66177666576808       -2.99807479059653       -1.13165242111379
C           -6.48636657900605       -3.65558316618678       -0.82317530657876
C           -4.29486329658572       -4.99519928734546        0.55089830864140
C           -5.33351811570605       -5.49615279731311        1.33721626908460
C           -5.34754831612485       -6.82860622644837        1.70121304792947
C           -4.33076090652796       -7.67849502632688        1.29433315533240
C           -3.29619568264513       -7.18517339427681        0.51467141315397
C           -3.27488456108035       -5.85546497768797        0.14108777852870
C           -2.05747777221816       -3.20437995670153        1.06370855388068
C           -0.87698154644297       -2.49332570067916        1.02513310606749
C            0.56120067527064        0.67932241405529       -0.11029382117048
C           -0.70192230872445        1.43216200270407       -0.10295064882804
C           -1.63488925175111        1.24585107985524        0.91798822901462
C           -2.81801527621651        1.95165030454731        0.93389091864405
C           -3.11146009036847        2.86119418579301       -0.08464487242580
N           -4.32234939503064        3.55828926310063       -0.09126193089434
C           -4.87174473052690        4.02906786238424        1.10463534357387
C           -4.04387142794820        4.49228180041164        2.12927857482479
C           -4.59185441356811        4.95464551663352        3.30989825475155
C           -5.96650316301292        4.96900198430428        3.48841216300987
C           -6.79314496131569        4.51368603636092        2.47302047326062
C           -6.25554674309464        4.04446542374827        1.29031619120682
C           -4.98085717309979        3.78289955150218       -1.30641641658232
C           -4.99400622580214        2.79239020229195       -2.28981647742803
C           -5.64371830157560        3.01365575922990       -3.48855840586650
C           -6.29050463145022        4.21688157511183       -3.72429845190938
C           -6.28124352771474        5.20286467345519       -2.74983301368635
C           -5.63105272458582        4.99359258350274       -1.54895489553062
C           -2.17369112314635        3.06346016466094       -1.09973138783522
C           -0.98352129511788        2.36741517115182       -1.09815555189298
C            1.75999095827217        1.37080983978603       -0.22261146647984
C            2.98949902909084        0.72012285936542       -0.15487543685936
N            4.14901038536683        1.38030684070007       -0.25589520443948
C            5.30708765758302        0.74078266468607       -0.16947303728657
H            7.63490364623293        4.64705909741148       -0.72476626094438
H            5.54083550607247        3.32206514895578       -0.53758979836038
H            9.92283536939169        1.07971631597746       -0.21926122649528
H            9.94801997889631       -0.89791964960818        0.04401127277449
H            7.75187903678377       -4.52045158707709        0.56475985924460
H            5.62489518976726       -3.24683273392623        0.39410258501324
H            1.82405414453221       -2.45819962208596        0.24369316537419
H           -1.50651761783986       -0.53520057224023       -1.65171954788584
H           -3.60220321628894       -1.80457978907082       -1.60088601351542
H           -4.87603833673370       -1.13791343981485        0.76513005808816
H           -6.96525414111165        0.02745599656038        0.19654052756283
H           -8.75876696270749       -1.16085366419366       -1.01879146101669
H           -8.44066942224788       -3.52391037214637       -1.66390070260702
H           -6.34541619377852       -4.68564438748684       -1.11576435693061
H           -6.11993886616759       -4.83263236916311        1.66553908624688
H           -6.15354180507308       -7.20440192890036        2.31407195255948
H           -4.34459873688835       -8.71859266688491        1.58274813722138
H           -2.50364236138503       -7.84230523607181        0.18821105286786
H           -2.47485922378775       -5.47534477535163       -0.47713097127132
H           -2.21470411654210       -3.95020644744764        1.82888856203654
H           -0.11576838286122       -2.68514466007259        1.76711821533765
H           -1.42124516795553        0.54331620817148        1.70954422133838
H           -3.53113493305041        1.79641824304342        1.72989919763107
H           -2.97308054722893        4.49612055022733        1.98772529127640
H           -3.94090573178682        5.31540492813378        4.09270419717217
H           -6.39021370859354        5.33417570727764        4.41162179639190
H           -7.86502771144597        4.51711206636337        2.60600810131744
H           -6.90210841210156        3.68231302483510        0.50473906226278
H           -4.49990980211358        1.85061471285715       -2.10151032275473
H           -5.65241171642082        2.23831385988945       -4.24037081139160
H           -6.79805567130624        4.38572443019314       -4.66193154025850
H           -6.77649558684291        6.14570784991304       -2.92937794276214
H           -5.61390512863180        5.76722702561061       -0.79535209035077
H           -2.38338517406547        3.77697347358755       -1.88303952398945
H           -0.26573562614677        2.53293220346174       -1.88844224989988
H            1.76061723010841        2.44464563986872       -0.33470938127341
