100
 energy: -160.141781541069 gnorm: 0.000039995344 xtb: 6.7.1 (edcfbbe)
N           11.08277628406878        4.21963771731491       -0.68385481969026
C           10.10240521679847        3.62871182878093       -0.60195386307013
C            8.89470833684945        2.90150914555203       -0.50095974285378
C            7.66706854604175        3.57123312439724       -0.59664201219865
C            6.50669932693724        2.84625752102620       -0.49286294529717
C            6.53617217826775        1.46056318128006       -0.29398127423999
C            7.76644617028058        0.77621519564285       -0.19921666288679
C            8.93945370531397        1.52712795757024       -0.30538309751732
C            7.78081044593362       -0.66720307930990        0.00518049839905
C            8.96846440645426       -1.39671219548386        0.09721957484626
C            8.95102625824317       -2.77157104657317        0.29369361354963
C           10.17283418218543       -3.47656744118384        0.38200149833772
N           11.16436246321127       -4.04992282220327        0.45369562319732
C            7.73699968698125       -3.46356597610091        0.40352890916185
C            6.56254727386395       -2.75969474887567        0.31393162070571
C            6.56450035391200       -1.37369120617044        0.11551389695363
C            5.30284447791931       -0.67219258412114        0.02460572291868
N            4.17940397978960       -1.36182370302735        0.13784195957707
C            3.02190408644478       -0.69433197022262        0.04968977026786
C            1.79839967821355       -1.38373655746331        0.14741088843302
C            0.60084284513827       -0.71818891316405        0.05691526327500
C           -0.65665408103284       -1.47610734915799        0.08856699917895
C           -1.64836382786759       -1.25589694186433       -0.86795834477808
C           -2.82408772091895       -1.97205661457216       -0.84620564681463
C           -3.05918766686399       -2.92558532396796        0.14810325073046
N           -4.26359970558847       -3.62435412740505        0.18907975367481
C           -5.45520231886024       -2.99314623884827       -0.19682682581341
C           -5.68367596173885       -1.65575210073977        0.12704111140020
C           -6.85663205271544       -1.03630214381676       -0.25903240407553
C           -7.82228488817984       -1.73873717715712       -0.96210417596124
C           -7.60387627329827       -3.06985776010032       -1.27900147177496
C           -6.42959341100006       -3.69542495959131       -0.90518540274105
C           -4.29274692829633       -4.96046505575152        0.61433254269490
C           -5.34530948312168       -5.42843581422735        1.40019966164159
C           -5.37396491472969       -6.74773196105547        1.81020823164049
C           -4.35550631673440       -7.61651655678844        1.45239675202806
C           -3.30621761461170       -7.15557001962357        0.67357999519445
C           -3.27303302072113       -5.84013601199027        0.25180944367029
C           -2.06111049328172       -3.16010341236074        1.09706898359010
C           -0.87729924453313       -2.45493265442145        1.05662683093461
C            0.58842130033933        0.70339247529385       -0.10930066464085
C           -0.68127972134790        1.44570503537933       -0.10188780090034
C           -1.60542934543839        1.26288961183455        0.92608278785494
C           -2.79024908332106        1.96587757797361        0.94496759329190
C           -3.09783227177354        2.86499768964135       -0.07860105937860
N           -4.31025856530272        3.55523800983669       -0.08209624049587
C           -4.87480586979034        4.00315887761600        1.11894468630903
C           -4.06315764780896        4.48561266817502        2.14593682819716
C           -4.62489618411246        4.92506322498417        3.32934547403392
C           -5.99895850238692        4.90001149994778        3.50662630667708
C           -6.81018711853398        4.42804784429613        2.48724805109281
C           -6.25722812738092        3.97905330806233        1.30320520808116
C           -4.97122300341721        3.79301393445159       -1.29624572257973
C           -4.99469816945729        2.81289397278811       -2.28817040730628
C           -5.64749230216043        3.04853958120660       -3.48297490237015
C           -6.29038286539918        4.25586258568929       -3.70496981611298
C           -6.27299257065931        5.23112345642122       -2.72066714725881
C           -5.61673673981606        5.00751314250885       -1.52522199247409
C           -2.16810925242895        3.05927410405725       -1.10230216162955
C           -0.97471711990307        2.36854725725280       -1.10388332363152
C            1.77052177118485        1.38849413962569       -0.23402616712311
C            3.00810578100399        0.71989523825166       -0.16423370933214
N            4.15144618245900        1.40683095163790       -0.27610773774950
C            5.28889745793747        0.73679733506473       -0.18378438306003
H            7.64822658465063        4.63961325538114       -0.74930602249112
H            5.54176016339166        3.32360043788417       -0.55914895938024
H            9.90817803756408        1.05853593468612       -0.23758470403872
H            9.92762170639344       -0.91060034005681        0.01775094862145
H            7.73926959809824       -4.53212224911386        0.55616155540629
H            5.60725869025666       -3.25421675088243        0.39230580297115
H            1.82932996725011       -2.45630405521646        0.26570773395401
H           -1.48079178605283       -0.53570068093500       -1.65443957576094
H           -3.57337183142723       -1.80190522406957       -1.60500800649529
H           -4.93738475083392       -1.11010458485828        0.68520807620946
H           -7.02158183057596       -0.00085264491291        0.00059386390231
H           -8.73907959362393       -1.25247389030355       -1.25981519328417
H           -8.34986595555229       -3.62457879607023       -1.82931323417838
H           -6.25849417651498       -4.73090787849209       -1.16130737914532
H           -6.13694198966837       -4.75131844750074        1.68653472665583
H           -6.19393396233944       -7.09753889283844        2.42040217971898
H           -4.38013771796507       -8.64598442818734        1.77678161202076
H           -2.51113409117954       -7.82727824857878        0.38416157115206
H           -2.45956150189731       -5.48579845485667       -0.36456825491339
H           -2.22628195911551       -3.89357116192636        1.87248890727269
H           -0.12434204930547       -2.63576413936382        1.81010271887227
H           -1.38515258384369        0.56854000069052        1.72333891928445
H           -3.49446216601933        1.81576101094417        1.74989171046526
H           -2.99212573053372        4.51682496144802        2.00734991158602
H           -3.98474105231594        5.29884708602309        4.11535975819843
H           -6.43421403147182        5.24770056545224        4.43146144720698
H           -7.88242559252797        4.40179970833881        2.61737527158742
H           -6.89280622012921        3.60755606512678        0.51263680147620
H           -4.50215658037639        1.86746148781631       -2.11261081049821
H           -5.66199091745285        2.27990242138133       -4.24202713051689
H           -6.80183637173342        4.43556546213245       -4.63869645793367
H           -6.76722492757216        6.17720347790625       -2.88737781881728
H           -5.59813197024836        5.77166897222487       -0.76168624102329
H           -2.38863987493246        3.76007045635073       -1.89411082701566
H           -0.26605357583022        2.52792604388380       -1.90385731074506
H            1.77914525631734        2.46108438740912       -0.35669212333567
