52
 energy: -79.323178931627 gnorm: 0.000112092054 xtb: 6.7.1 (edcfbbe)
O            7.33908912040414       -0.12794236945473       -1.29269960854612
C            6.06280620760002        0.44286094183321       -1.48396643394738
C            5.11025580745485        0.22095530608570       -0.33306766676761
C            5.59148042769347        0.04426197331966        0.95773457347628
C            4.71174687297918       -0.15039624962818        2.00874966637057
C            3.34755126355914       -0.16611358169476        1.78196915501929
C            2.85036344078241        0.01591545998834        0.49467494324067
C            1.39146204232603        0.00687639745476        0.24280259009599
C            0.68262202399573       -1.20196500042428        0.28227544603104
C            1.33016840837581       -2.43944907758739        0.54032584880566
C            0.63499932468475       -3.60916107082410        0.56449411460807
C           -0.75359408318392       -3.61606984688586        0.32104473158901
C           -1.41072836262420       -2.45320122479419        0.06009339836457
C           -0.72626358050163       -1.20890358881411        0.03642041121306
C           -1.39133625610496       -0.00675473024187       -0.24268812142809
C           -2.85027544640166       -0.01582117978498       -0.49453081160514
C           -3.34743218395294        0.16542202272076       -1.78195050687150
C           -4.71161466479312        0.14944554528746       -2.00874687161630
C           -5.59135089286650       -0.04467246234441       -0.95763313282485
C           -5.11016920118643       -0.22044450440405        0.33330384780203
C           -6.06258036758111       -0.44177292724699        1.48439901704296
O           -7.34014193494067        0.12564030106697        1.29150692584256
C           -3.74030524272054       -0.20445218919040        0.55626494461222
C           -0.68248211561082        1.20207598120277       -0.28221894315933
C           -1.33004986585874        2.43953071420471       -0.54039246941201
C           -0.63491133687369        3.60925619446230       -0.56451920713592
C            0.75365846892255        3.61619260568175       -0.32092372525085
C            1.41080936645213        2.45333931381778       -0.05992759877251
C            0.72639570542557        1.20901905445718       -0.03630999723928
C            3.74039337909163        0.20518405719643       -0.55600874864397
H            7.22931458430443       -1.07397300806432       -1.13541693061655
H            6.24522607246355        1.51692278441286       -1.60556192010614
H            5.61146360699127        0.06958602461263       -2.41520876457314
H            6.65767300759608        0.06419157885979        1.13213183516141
H            5.09316310845369       -0.28791993570661        3.01013734460883
H            2.65871724671499       -0.31349574807595        2.60129007225702
H            2.39610257519698       -2.43503319942054        0.71443722924919
H            1.14213181282088       -4.54236261030262        0.76303572872831
H           -1.28905533347615       -4.55439406283924        0.33584332929277
H           -2.47215975866171       -2.46020965295817       -0.13934172047836
H           -2.65857758480009        0.31236422816407       -2.60133274124124
H           -5.09302484159324        0.28632820977636       -3.01022187961125
H           -6.65752606575690       -0.06490895301229       -1.13209476055074
H           -6.24255529511733       -1.51596727058364        1.60850034856391
H           -5.61236012564174       -0.06525546691969        2.41488383431733
H           -7.23250645430036        1.07155254436190        1.13199167851595
H           -3.35609392228598       -0.33922149308093        1.55794300094474
H           -2.39596533939644        2.43504780657772       -0.71463230066725
H           -1.14204224804269        4.54243953966481       -0.76314713097500
H            1.28909093727084        4.55453466030583       -0.33566727552017
H            2.47222665648028        2.46039458628318        0.13957487852746
H            3.35619103624029        0.34052157248745       -1.55761562671757
