52
 energy: -79.253324680192 gnorm: 0.000061910875 xtb: 6.7.1 (edcfbbe)
O            7.27975892107220       -0.71397135099273       -1.24974951381265
C            5.98229239392881       -1.26037075492976       -1.14800756969985
C            5.07619181065701       -0.51579257503257       -0.19601500406029
C            5.60668786511743        0.15121948997222        0.90252474158810
C            4.76834982038253        0.82988425028252        1.77208091682547
C            3.40456053000155        0.84938975601327        1.55623429440125
C            2.84900826317556        0.17682573550023        0.46288058988208
C            1.40559840381765        0.17994782987346        0.23178792929937
C            0.69941881719812       -1.05915024148011        0.14807468856639
C            1.33584019547533       -2.28490873328182        0.36240759367361
C            0.66055148581055       -3.49530353598480        0.20301633515749
C           -0.66272988262209       -3.49581619744542       -0.17870965861714
C           -1.33729430550313       -2.28583628986463       -0.34419643327911
C           -0.70027746634214       -1.05938200682178       -0.13556294025586
C           -1.40532378991131        0.17990244117850       -0.22544652808873
C           -2.84777938995561        0.17783886185692       -0.46257816691421
C           -3.39663489826972        0.84775016293734       -1.56096507310812
C           -4.75926593169705        0.82967017435347       -1.78402951916203
C           -5.60314511053331        0.15493042377553       -0.91681918965320
C           -5.07943449648699       -0.50932176845632        0.18664759616423
C           -5.99225397681374       -1.24950611716906        1.13566129447603
O           -7.28682001981189       -0.69549402002878        1.23423987991650
C           -3.71141447352284       -0.49598988866339        0.40436989983551
C           -0.70815699231448        1.41912308935808       -0.08693704711544
C           -1.37844840619183        2.64549991728633       -0.09406741265038
C           -0.68712757265239        3.85583624517552       -0.03366293693515
C            0.68852665543339        3.85573647583274        0.03168567027922
C            1.37957520492946        2.64539507016769        0.09494874181125
C            0.70898902606903        1.41915076545076        0.09090716776202
C            3.70704682262581       -0.50118334827200       -0.40634855925461
H            7.20079928052613        0.20908290631926       -1.52083920852497
H            5.51114575297033       -1.31782188703200       -2.14029189796535
H            6.13127811167534       -2.28425824443555       -0.78591515294784
H            6.67376904499009        0.13186678373485        1.06974572819661
H            5.18446142883373        1.34209331601199        2.62762036160631
H            2.75139283871191        1.35994420872482        2.24897336064544
H            2.37269128866209       -2.29982325393799        0.66143371801610
H            1.18664931706285       -4.42384824244249        0.36849053589266
H           -1.18933999724536       -4.42485817543202       -0.33971829220089
H           -2.37404283152579       -2.30167378925753       -0.64349988734423
H           -2.73905158708249        1.35538625234382       -2.25166174899768
H           -5.17000280767539        1.33992027157147       -2.64333034526686
H           -6.66940170228222        0.13672665438646       -1.08929724127362
H           -6.14642007966287       -2.27209772361988        0.77206842575534
H           -5.52418459751628       -1.31068097520970        2.12913036145878
H           -7.20355341213664        0.22574581834290        1.51007072552284
H           -3.30222033357120       -0.99412004207137        1.27225519479153
H           -2.45629759955273        2.66071615870391       -0.14457556601941
H           -1.23787323106936        4.78477379574079       -0.05047554542210
H            1.23949654424631        4.78458280946362        0.04608788848868
H            2.45742883555870        2.66047408355158        0.14517375349014
H            3.29237978059862       -1.00176281281393       -1.27021230581314
