  52
        -79.29204807
 O          7.3661958061       -0.3076558595       -1.1865854308
 C          6.0521789625       -0.7961618705       -1.3178835011
 C          5.1019480618       -0.3190929917       -0.2455462604
 C          5.5785765584        0.0919867544        0.9919141916
 C          4.6978721451        0.5175455717        1.9714540656
 C          3.3373388895        0.5303104748        1.7272145736
 C          2.8438531593        0.1117566734        0.4946869501
 C          1.3884538415        0.1062238564        0.2335304207
 C          0.7076639599       -1.1142457802        0.1224624587
 C          1.3742148817       -2.3582661290        0.2779811963
 C          0.7076287530       -3.5372518335        0.1473861302
 C         -0.6692091160       -3.5460730885       -0.1525095047
 C         -1.3496402808       -2.3755908564       -0.2884812753
 C         -0.6981149203       -1.1230751285       -0.1375810585
 C         -1.3935111186        0.0888113930       -0.2525251037
 C         -2.8495958132        0.0795106468       -0.5080973252
 C         -3.3546215737        0.5092431694       -1.7316764110
 C         -4.7177066418        0.4979152673       -1.9642184869
 C         -5.5888968958        0.0614943420       -0.9816891831
 C         -5.1000849701       -0.3671738870        0.2456743684
 C         -6.0488558634       -0.8516800255        1.3150856323
 O         -7.3107217069       -0.2234206838        1.2861778514
 C         -3.7319263842       -0.3549527142        0.4745117392
 C         -0.7150910702        1.3092666113       -0.1271215431
 C         -1.3940163839        2.5538587634       -0.2061409051
 C         -0.7220520477        3.7326600442       -0.1043866414
 C          0.6752441111        3.7410052621        0.0792905362
 C          1.3605410747        2.5701010507        0.1828933749
 C          0.6957163533        1.3178931725        0.1046589165
 C          3.7351882269       -0.3063689947       -0.4859088474
 H          7.3379485283        0.6561123650       -1.1930319227
 H          5.6438268089       -0.5442998375       -2.3082503703
 H          6.1445067024       -1.8859838221       -1.2611817748
 H          6.6411502737        0.0696641893        1.1841873629
 H          5.0758944642        0.8367504087        2.9315690005
 H          2.6466366091        0.8559724696        2.4914095504
 H          2.4293589410       -2.3517047374        0.5064513497
 H          1.2287394226       -4.4754009744        0.2688534454
 H         -1.1790394467       -4.4908800711       -0.2700821983
 H         -2.4045916890       -2.3826944146       -0.5178588903
 H         -2.6713205340        0.8456597108       -2.4979254951
 H         -5.1039910250        0.8289204277       -2.9169040858
 H         -6.6542910365        0.0470690270       -1.1586536963
 H         -6.2573364251       -1.9168556243        1.1639174609
 H         -5.5819014319       -0.7363297184        2.3046273969
 H         -7.1812285175        0.7295328237        1.3681707653
 H         -3.3419046282       -0.6837839472        1.4278183791
 H         -2.4645110067        2.5481633343       -0.3480255401
 H         -1.2531632073        4.6711237028       -0.1666945365
 H          1.1951383239        4.6857647686        0.1407007687
 H          2.4308687568        2.5758851108        0.3260898119
 H          3.3550478106       -0.6239502599       -1.4471216175
