67
 energy: -101.754098016918 gnorm: 0.000040102236 xtb: 6.7.1 (edcfbbe)
C           -6.99284974170621        2.54896676718565       -0.90877598240487
C           -7.10724710874469        1.03696176762123       -1.12501744911390
C           -6.99863404670235        0.69982139762498       -2.61525854298916
C           -8.39030954156957        0.49569976708063       -0.53520756830581
C           -9.68980043722311        0.80517924985724       -0.86286965434526
C          -10.72468289967490        0.17451340514389       -0.18013018135448
C          -10.45513241680427       -0.75342135063721        0.81675150498472
C           -9.15299726062905       -1.07288345636856        1.15490134176000
C           -8.11311215410380       -0.44535704916531        0.47639916246637
C           -6.68673704223847       -0.57324534240872        0.61019683594194
C           -5.90914502001897       -1.36467308431317        1.45919806590526
C           -4.54314695846355       -1.29191787654225        1.37555243167811
C           -3.90858641715200       -0.43134970419198        0.44771969004362
C           -2.49918541470379       -0.36832463474313        0.37745315672502
N           -1.87269404449790        0.43089425215846       -0.52577072142783
C           -0.59102666926761        0.50304421017210       -0.59697927767344
C            0.29674246136315       -0.23765121804087        0.24047603999480
C            1.71902391744227       -0.16916686954338        0.17310777880149
C            2.37884755946879        0.91583194330288       -0.44543064986358
C            3.74682852846653        0.98176202859960       -0.51135490904532
C            4.53585887894959       -0.03269719278700        0.04130371601341
N            5.92915924658220        0.03449639316952       -0.02370578664119
C            6.76855934495109       -0.98204318629490       -0.43409649507754
C            6.45636624016357       -2.24564001500336       -0.91697439395471
C            7.50120383979677       -3.07034316120050       -1.28903165569291
C            8.82647425181385       -2.65199390153358       -1.19651463703522
C            9.14228290579576       -1.38492778197850       -0.74362944693467
C            8.11041812593260       -0.53939869040017       -0.36344831015167
C            8.06796492580615        0.81414477233733        0.11858336254854
C            9.04533681927965        1.75523279196968        0.40717054003332
C            8.65338956053228        2.98850897395392        0.89266050789489
C            7.30836460351300        3.27974559640325        1.10712517420870
C            6.31688148556792        2.35819270639819        0.82788352534118
C            6.70218580431143        1.12783001631076        0.31305303301258
C            3.90321120550377       -1.11603244709218        0.66046736877045
C            2.53513187249018       -1.18267022798833        0.72256937774112
C           -0.43230458173132       -1.05597525538674        1.15551110470953
N           -1.71568193058438       -1.10306944500859        1.20961093801159
C           -4.70477786890723        0.36820183511265       -0.40800518978614
C           -6.06403558848628        0.29128337040048       -0.32111251829184
H           -7.78693470604761        3.06874216136995       -1.44013471149338
H           -7.07201677977004        2.78354332763406        0.15067306187659
H           -6.03396177316471        2.90949506838656       -1.27342946409586
H           -7.79098140121683        1.19295026178328       -3.17391163604484
H           -7.08490612525864       -0.37446108230242       -2.76419257838929
H           -6.03848627556966        1.02833682264113       -3.00593724538443
H           -9.91272021577150        1.52534145908431       -1.63714311921179
H          -11.74952004250932        0.40913500441492       -0.42832010322947
H          -11.27543735223808       -1.23060325656965        1.33368645274402
H           -8.94605438450740       -1.79469586914482        1.93100560013686
H           -6.38212250323676       -2.02179545132952        2.17435177469962
H           -3.91458110307213       -1.88564591115845        2.02184047916428
H           -0.19704740037522        1.12673909719817       -1.38939075682197
H            1.79612902618537        1.71545801020838       -0.87674836440310
H            4.22675890454101        1.80866519358455       -1.01381649141876
H            5.43193093003301       -2.57129388973509       -1.01334185244404
H            7.28446381220534       -4.05938183643298       -1.66443364991959
H            9.61496381128261       -3.32670663864487       -1.49452602205645
H           10.16850916367092       -1.05442417798936       -0.69013793023877
H           10.08912836124229        1.52322136552463        0.25916222989452
H            9.39822953241481        3.73609162132860        1.12091931680623
H            7.03392842227664        4.24533681124309        1.50515326809057
H            5.27923405757461        2.58570192960920        1.01848841938129
H            4.50536150778767       -1.89040117004490        1.11247187764695
H            2.07510050354233       -2.03273434981400        1.20290404221758
H            0.09292027487212       -1.63870273635002        1.90153147408307
H           -4.20776669147130        1.01655982554229       -1.11361377476037
