67
 energy: -101.753628606358 gnorm: 0.000067523107 xtb: 6.7.1 (edcfbbe)
C           -6.97667028403990        2.61405398989337        0.71270071271566
C           -7.09729682089335        1.49108317583758       -0.32256182561321
C           -6.99003702704653        2.05761792800061       -1.74120653069976
C           -8.38232054968846        0.71607864811246       -0.13545049323576
C           -9.68044135019655        1.15816646959251       -0.23788594590567
C          -10.71788849220889        0.25746224985612       -0.01886740940061
C          -10.45177300524595       -1.06783741395308        0.29921582026251
C           -9.15125171337245       -1.52415217881959        0.40612867610236
C           -8.10815635822191       -0.62873626951408        0.18758638069955
C           -6.68379548253194       -0.81373525078098        0.22560479468934
C           -5.90807697932062       -1.94432081757321        0.49963976641859
C           -4.54264084837224       -1.84167505017126        0.46827792190099
C           -3.90395210626369       -0.61527739278438        0.15816159145633
C           -2.49588904780641       -0.52819246400252        0.12605218142246
N           -1.87059320862718        0.63998431364556       -0.18093593530238
C           -0.58832391193762        0.73379662972426       -0.21868522614932
C            0.29600477732469       -0.34812816174466        0.06780974792705
C            1.72035010955141       -0.25385986784875        0.04279787386362
C            2.37885423550803        0.74595602546926       -0.70412593574259
C            3.74738588176196        0.84106781903999       -0.72349108913945
C            4.53294811768382       -0.05920413974704        0.00339689701500
N            5.92632014001731        0.04129645917440       -0.01243504091428
C            6.81055369795476       -0.99875780876055       -0.22025677195773
C            6.55596617942018       -2.33254048518028       -0.50962259664220
C            7.63874254650213       -3.16991549414782       -0.70032262341843
C            8.94668763569036       -2.69810111802017       -0.61817400931681
C            9.20654133770999       -1.36548760274419       -0.36054814774282
C            8.13551341253487       -0.50578553845966       -0.16470402013123
C            8.03513204921718        0.90456530750877        0.09277484835030
C            8.97347879876914        1.91142901598651        0.26693617987756
C            8.52794616900098        3.19222119008999        0.53307548939110
C            7.16734941268784        3.46844084754949        0.64507371180522
C            6.21428147472070        2.48200026269892        0.47622048664737
C            6.65408416021622        1.19931402193216        0.17816666144261
C            3.89963021642946       -1.05989033247075        0.74734417924023
C            2.53094807598169       -1.15437872603151        0.76599990869718
C           -0.42950702835085       -1.53465673810323        0.38530605801551
N           -1.71361801036525       -1.60560782661258        0.40105570895400
C           -4.69831334868153        0.52531068422611       -0.11916624879017
C           -6.05694167894388        0.41906668534020       -0.07983734484459
H           -7.76748483280134        3.34713517318332        0.57034597376776
H           -7.05680942425992        2.20712176039159        1.71855995369163
H           -6.01530029180293        3.11284503969136        0.61583345422624
H           -7.78118090245878        2.78218047187193       -1.92054793686868
H           -7.07895032615817        1.25733787850122       -2.47284026933759
H           -6.02934299755075        2.54818199698458       -1.87830209611634
H           -9.90078931328390        2.18700317230063       -0.48431118363049
H          -11.74180988402105        0.59260831820983       -0.09707604618182
H          -11.27407456938968       -1.74921044483205        0.46457508981167
H           -8.94700435429456       -2.55534998408816        0.65315748978421
H           -6.38391388438796       -2.88615964036662        0.73088892806811
H           -3.91590303269031       -2.69657992000720        0.67209138485988
H           -0.19233098875710        1.71873710282642       -0.43095307701047
H            1.79757998656520        1.43457733134927       -1.29824909786725
H            4.22981843510200        1.59489550613895       -1.32804672730155
H            5.54656953164413       -2.70420023217369       -0.59752120382363
H            7.46635715599953       -4.21256313580408       -0.92239215898968
H            9.76607101001792       -3.38468675642987       -0.76976506162314
H           10.21983084311383       -0.99595495257750       -0.31654831997485
H           10.02859786500361        1.69351135140048        0.20006661814706
H            9.24163876756576        3.99106958075786        0.66818391688434
H            6.84974279365238        4.47499126855543        0.87342345439946
H            5.16368786926010        2.70258334577489        0.58732577881261
H            4.49780663700708       -1.73962220812379        1.33606425459901
H            2.06679578368041       -1.91640479996508        1.37340331667596
H            0.09783939431522       -2.46055463205136        0.57639888836192
H           -4.19841891902225        1.45414214788570       -0.34835042753419
