72
 energy: -98.569285607393 gnorm: 0.000047941541 xtb: 6.7.1 (edcfbbe)
C            3.20560298164269        3.52833538083571        0.76605480669071
C            2.00561082749199        2.63810270985334        0.72873901758508
C            1.83538386043916        1.61896716795528        1.65824132260176
C            0.72731458989793        0.79293679349347        1.63689661720420
C            0.55624366107054       -0.18995272204151        2.75499560010482
C           -0.24513883765627        0.92119625559823        0.60589878709280
B           -1.31072803024504       -0.18834291357729        0.35825006652915
C           -0.92154559223052       -1.65849736287985        0.25463613376682
C           -1.86509392371374       -2.69553584443306        0.49212567715672
C           -1.52645017677105       -4.01631030481268        0.58339602292729
C           -0.19188380665601       -4.41838262971602        0.40902078340156
C            0.76169254712946       -3.45782918660783        0.13575104093625
C            0.43137715700159       -2.11326303382379        0.01912437330184
N            1.46870237030184       -1.22650696420223       -0.28927667859671
C            2.67237158497947       -1.15692254208855        0.38138012241536
C            3.08721532052913       -1.82836750972783        1.52503717594869
C            4.35405997506209       -1.56149301750906        2.01048195595141
C            5.19653757561103       -0.64886731966943        1.37807079306481
C            4.79082168242663        0.02336159503993        0.23834319009095
C            3.52432693029664       -0.22715494173725       -0.26532464288107
C            2.80145641738985        0.25266816616818       -1.41154573607047
C            3.12232176426334        1.11333818550842       -2.44987039287602
C            2.20472251072694        1.29198823300869       -3.46947947259351
C            0.99200875822199        0.60825221019865       -3.46985320265323
C            0.64962409370259       -0.25013867218606       -2.44104155546750
C            1.54909118354547       -0.40535614444089       -1.39796411249006
C           -2.84716292788195        0.20321384630018        0.22572809989204
C           -3.44567216037629        0.99451922155474        1.22463033651312
C           -2.67323469778696        1.43350487627448        2.43292385583832
C           -4.78262297010281        1.34526078757825        1.13684081223425
C           -5.57787884773473        0.93668670164286        0.07396202720168
C           -7.02372176456383        1.33176535085338        0.00594652053560
C           -4.98881254906364        0.15808345630313       -0.90602345968806
C           -3.64893053339909       -0.21120476195268       -0.84781073341946
C           -3.12190842495124       -0.99755598089017       -2.01536611636872
C           -0.13073406689069        2.04897692690258       -0.25184840037338
C           -1.20209067335167        2.34601160915741       -1.25369104377332
C            0.98387411668507        2.85575380304918       -0.19880892005025
H            2.97977133446520        4.44273226918499        1.31822700533288
H            3.50169137547558        3.81377953933619       -0.24154675730285
H            4.03843516605151        3.03168401902495        1.25859317410406
H            2.58574263285783        1.47548883702833        2.42444310076802
H           -0.07025066847802        0.25289073846641        3.53085325346498
H            0.07010257128172       -1.10189107588913        2.42035198669370
H            1.51714701441981       -0.43281171358032        3.20316678037856
H           -2.89492118468501       -2.40249631789531        0.64152230395337
H           -2.28349341763691       -4.75936436077772        0.79279161401442
H            0.07881090716926       -5.46211289776163        0.45305959209959
H            1.78477489444154       -3.75371467070029       -0.05702964427419
H            2.44167196538084       -2.53701401416529        2.02046375479567
H            4.69859087578338       -2.07127038454500        2.89843958519827
H            6.18041123645048       -0.46798381579460        1.78573988630267
H            5.44589220992782        0.72852253259821       -0.25056311118996
H            4.07442203630995        1.62203648382382       -2.46626024429610
H            2.43690567939966        1.95758386365932       -4.28800154509660
H            0.30787214617826        0.74645231850885       -4.29398924121675
H           -0.28129619730996       -0.79162889692363       -2.45172160597267
H           -2.34683964575142        0.56276301915833        2.99991849200331
H           -3.28595296910757        2.05939424196761        3.07863786455098
H           -1.78692907331645        1.99401605800902        2.14121528154611
H           -5.22490729500128        1.94124783041123        1.92483249087304
H           -7.12121945088165        2.41744567609954       -0.01460607291693
H           -7.55970808300003        0.96671260782195        0.88233257315646
H           -7.49661497706184        0.92404200833411       -0.88458353813864
H           -5.57904418591323       -0.16540841139060       -1.75386449965844
H           -2.92890289253927       -0.32804769942722       -2.85588474301219
H           -2.20373563694738       -1.51611345940840       -1.76143300018355
H           -3.85590895893003       -1.73315899096011       -2.34111933726633
H           -2.11509007838977        2.66354924234358       -0.75083033285688
H           -0.88697711512460        3.13409059391995       -1.93397578859875
H           -1.43895653652893        1.45370883156045       -1.82697364643577
H            1.07969377850905        3.67642735671134       -0.89697006947961
