72
 energy: -98.662195343652 gnorm: 0.000029970366 xtb: 6.7.1 (edcfbbe)
C            3.04228278776200        3.81142576672186        1.08991243924525
C            1.92473409012287        2.82407198322714        0.93975664805560
C            1.74175557403041        1.79721218998905        1.84889272834897
C            0.71265864539879        0.87580197894553        1.70910430308722
C            0.53237907717548       -0.12937406605866        2.81082405229924
C           -0.17620094164574        0.95602444294164        0.62594209252265
B           -1.27240981585476       -0.13465178353600        0.35423411252795
C           -0.86985330979308       -1.65757635979846        0.28680867540918
C           -1.82940139531669       -2.60696560632507        0.66894381717075
C           -1.55660080408981       -3.95955682123027        0.73155273813648
C           -0.29671881665445       -4.42376593377682        0.38990942191504
C            0.67337214878005       -3.52140988953609       -0.00499965966638
C            0.40183622657675       -2.15751540052475       -0.05043213742755
N            1.46634101649059       -1.30805033724689       -0.42587036318206
C            2.64165826251290       -1.18055914197248        0.28245477139948
C            3.03940642334739       -1.81092022775686        1.45322698986866
C            4.28273065916836       -1.49628232820331        1.96696076206997
C            5.11847586293359       -0.57626609288259        1.33624989414118
C            4.73229207926970        0.04668065485531        0.16629225917975
C            3.48825124104454       -0.25605013100964       -0.37168965839659
C            2.79660463761497        0.15375065167930       -1.55979784468842
C            3.13122068257777        0.97928710494816       -2.62495117649203
C            2.24972481611644        1.08914372803911       -3.68186576143544
C            1.05422576576042        0.37397383151942       -3.69269393334619
C            0.69485956181146       -0.44468038195349       -2.63909493882072
C            1.56006523126835       -0.53359673927715       -1.55918535811466
C           -2.79960643050039        0.23241650262565        0.23036055521380
C           -3.43815874418517        0.94681480118189        1.26441654699355
C           -2.68533236924002        1.36247403034481        2.49456670060933
C           -4.78848515519958        1.24359855451541        1.19151817868101
C           -5.56224494870095        0.86873251392114        0.10103809200198
C           -7.01849179364141        1.21890695249713        0.04234985774027
C           -4.93993470993645        0.17092869256314       -0.91849344102645
C           -3.59019409975451       -0.15519413811212       -0.86431790403587
C           -3.01641214205175       -0.88181200781940       -2.04645159076142
C           -0.02884799464231        2.04149540097206       -0.25822262792600
C           -0.99856556822873        2.24999250833650       -1.38471222596588
C            1.01195318723105        2.93965074308161       -0.10023015805970
H            2.66205451400834        4.75060041791701        1.49459432719875
H            3.49711524305014        4.02480294439379        0.12427822121567
H            3.80636897934965        3.43259195068006        1.76477133397800
H            2.41679310906584        1.70347913368748        2.68907064201705
H            0.04375291966850        0.35159995171933        3.65973768554568
H           -0.08102160061676       -0.96843032877562        2.49721332129299
H            1.49799230167395       -0.49581447199652        3.15256944766433
H           -2.81609618730742       -2.25569586947108        0.93439878432333
H           -2.32561270284256       -4.65198404686283        1.04130458554274
H           -0.07143471281535       -5.47954866776590        0.42509017149275
H            1.65952034460061       -3.86602107626108       -0.28326290125727
H            2.40028281756764       -2.52943058940942        1.94462469551359
H            4.61634533689031       -1.97489256800915        2.87695056815854
H            6.08345645130185       -0.35580536416827        1.76972386013787
H            5.38376245351253        0.75395407065910       -0.32555741051340
H            4.07086455176043        1.51204291773256       -2.62985564157170
H            2.49401918850573        1.72294944152276       -4.52214059831927
H            0.39774273543544        0.45729813454435       -4.54723306819805
H           -0.22073087808842       -1.01382639650348       -2.66395091460301
H           -2.33206944168680        0.48599556785704        3.03457407694002
H           -3.32462876142215        1.94106600824676        3.15810508786498
H           -1.81938082190029        1.96462156827434        2.23029081898265
H           -5.25582873119446        1.78318894716400        2.00461391030502
H           -7.14280484851465        2.29947293368207       -0.03456588126965
H           -7.52716490749171        0.89064504588471        0.94807891243884
H           -7.49741472963131        0.75447494333587       -0.81648738299691
H           -5.51711379607596       -0.13409525036538       -1.78136787414981
H           -2.69815692857752       -0.16455386185269       -2.80448760654788
H           -2.16149581443598       -1.48601069291618       -1.76123011695541
H           -3.76809394177878       -1.52769179582224       -2.49702735895059
H           -1.99626465655190        2.44034544729897       -0.99181822425440
H           -0.69820464815298        3.09798542285976       -1.99637745296410
H           -1.04756536585801        1.36848798984442       -2.01733243129040
H            1.11950287733514        3.75274934062916       -0.80582747256879
