72
 energy: -98.662141345514 gnorm: 0.000142529897 xtb: 6.7.1 (edcfbbe)
C            3.37546082613008        3.52048566475570       -1.07661900865793
C            2.22795072908925        2.64141674639479       -0.68041650804576
C            2.02423283935265        2.26878076305896        0.63628673111846
C            0.96559544610121        1.44984830929223        1.00613094797036
C            0.76972833795056        1.19990244476057        2.47452454302902
C            0.06711945995371        0.96495658036612        0.04344747013645
B           -1.07161639859799       -0.05780451659596        0.39386486241551
C           -0.72712747487247       -1.38786353288506        1.16670290291214
C           -1.71436065308068       -1.93853394133266        1.99746981304163
C           -1.49053089641674       -3.05088968894571        2.78512763574412
C           -0.25465136036390       -3.67653858977241        2.75649928363420
C            0.74117977173173       -3.17238386864021        1.94079940192011
C            0.51957704342405       -2.04085747472547        1.16193649958229
N            1.60766444287644       -1.57291288967353        0.39229712262651
C            2.80120479092663       -1.13537094971845        0.92479937431961
C            3.19910262276498       -1.05544143099966        2.25207091185620
C            4.46427998838940       -0.56924589933028        2.51995700563171
C            5.32104369197596       -0.16850521250250        1.49625141306798
C            4.93418673389896       -0.25386229983220        0.17370485524892
C            3.66832781684071       -0.74326337432260       -0.12103944572639
C            2.96814143547224       -1.00529781762881       -1.34538717984585
C            3.31152753850708       -0.89538584315860       -2.68635032906694
C            2.41353881884330       -1.33305245490883       -3.63933203740140
C            1.19262491176388       -1.89188502229206       -3.26787753952230
C            0.82425511171042       -2.00036688112084       -1.94057102841701
C            1.70719090779741       -1.53201037118633       -0.97946245294425
C           -2.58446492586283        0.24404957848487        0.07442598341190
C           -3.17643407953113        1.43723785273090        0.53642029065446
C           -2.38830594986247        2.42833762323328        1.34254570260006
C           -4.51314721521261        1.70521569811846        0.29490571769969
C           -5.31837627686236        0.82622793034729       -0.41723407964540
C           -6.75699698894945        1.15146538198070       -0.68380965433708
C           -4.74244440359865       -0.34574299303862       -0.87405944477497
C           -3.40749130999463       -0.64745577608575       -0.63405029227868
C           -2.88476657848069       -1.92993148241442       -1.21463439012525
C            0.23964967066874        1.39836396968192       -1.28477614620632
C           -0.73610502893604        1.00152125521243       -2.35404610291817
C            1.30825543530632        2.20822285257317       -1.62645836668531
H            3.84366046428775        3.15096537003228       -1.98732442292117
H            4.12241688907314        3.56243225329952       -0.28733748238966
H            3.02311014164460        4.53462452305561       -1.27052802884120
H            2.70500766971895        2.61940391675383        1.40052921372025
H            1.72704774168614        1.02248265155472        2.96005019680479
H            0.32725045079380        2.08523137265008        2.93413118596689
H            0.11131247069954        0.35653159002584        2.65838421659619
H           -2.68300445685570       -1.46039320330891        2.02361345243258
H           -2.27880001965065       -3.43325134627627        3.41691134681963
H           -0.06784076085885       -4.55288552241879        3.35964249853131
H            1.70886099775761       -3.65252511599037        1.89942419583372
H            2.54346868458823       -1.36906949680193        3.05083567623207
H            4.79839672846088       -0.49922074705202        3.54557134619738
H            6.30255255137961        0.20815399296891        1.74618783103637
H            5.60139143588816        0.05095005216737       -0.61908270207040
H            4.26960613978973       -0.48789009084376       -2.97405088175993
H            2.66422360410310       -1.26036206492400       -4.68782941201419
H            0.52304851618461       -2.25326787547691       -4.03544781097146
H           -0.11187411737379       -2.45481788122452       -1.65790420378949
H           -2.03804038831322        1.97152957322585        2.26596489662578
H           -3.00175631661300        3.29059298152894        1.59546066341357
H           -1.51781329951707        2.76987768958953        0.78732386733352
H           -4.94429141254941        2.62392817918001        0.67013656328344
H           -7.28598595188611        0.28629192713459       -1.07672296438447
H           -6.82960512410489        1.95926802628121       -1.41303734976118
H           -7.25128745636469        1.48250140545971        0.22845365194157
H           -5.34564351671830       -1.05032991196228       -1.43129832478030
H           -3.67198634700684       -2.68124879303546       -1.24633113030762
H           -2.54547118909808       -1.76264609211456       -2.23810748748465
H           -2.05457326925961       -2.31810158266842       -0.63380190337438
H           -1.70944590608057        1.44960847331938       -2.15813139008606
H           -0.39095288400021        1.33561871616268       -3.33009847508847
H           -0.86077404517241       -0.07667638426416       -2.38200140861374
H            1.43277514448475        2.51126007410963       -2.65763088610846
