72
 energy: -98.569317263115 gnorm: 0.000045054347 xtb: 6.7.1 (edcfbbe)
C            3.10904779225679        3.32943362841875        1.57927548356317
C            1.92866355943478        2.44978278131889        1.32066178052708
C            1.78988481935011        1.24031452504811        1.99545300456265
C            0.70783879070948        0.41097135441388        1.78170688424990
C            0.55778894340978       -0.82179478397813        2.61639754303266
C           -0.27038383207282        0.74460843741500        0.79906847078922
B           -1.30228653781173       -0.31915643718870        0.32254993934820
C           -0.84857621244075       -1.72237445270829       -0.06891586149595
C           -1.73180702819733       -2.83301176000935       -0.00841269690106
C           -1.32554659731295       -4.12821934969453       -0.17082813505338
C            0.02037890787700       -4.41766645842428       -0.44859165325510
C            0.91680620678513       -3.37403421036174       -0.56106139195508
C            0.51753838780416       -2.05046049060366       -0.41194407094366
N            1.49865477945713       -1.06495030046824       -0.57654585872356
C            2.72343973790538       -1.05066649600084        0.05982954330534
C            3.22608279476238       -1.90020856400823        1.03807650702079
C            4.49297765437002       -1.64782781977251        1.53032199315981
C            5.25493211758305       -0.57908155584967        1.06232565007760
C            4.76475430179065        0.26869001407214        0.08459926843912
C            3.49469095215757        0.03775290381941       -0.41960253158486
C            2.70152822547389        0.68111380619604       -1.43080718026743
C            2.93259633236549        1.74262944010780       -2.29193515841379
C            1.96632854040382        2.05572262528061       -3.23101942838045
C            0.79457655071079        1.31068230401924       -3.32820827757397
C            0.54126035738154        0.25236053374040       -2.47447729884049
C            1.48931204482982       -0.04334407547036       -1.50783794396657
C           -2.85075960543098        0.03646619154877        0.26376448835615
C           -3.47589082301170        0.63145952599730        1.37722591186342
C           -2.72961474156102        0.90462747084179        2.64987194225391
C           -4.82795450850997        0.93453936878489        1.34776207256334
C           -5.61391881455649        0.67366410125762        0.23371611198692
C           -7.07758694855852        1.00274652980310        0.23334762309552
C           -4.99864465699192        0.09400084889242       -0.86156524075533
C           -3.64476420863399       -0.22269752411985       -0.86545557321987
C           -3.09501957465071       -0.76812759662600       -2.15379124545099
C           -0.19031104685984        2.03851106468573        0.21874005307008
C           -1.27505189250754        2.52193882709363       -0.69152006808368
C            0.90285923372145        2.84238704782461        0.45835887188887
H            3.17996585486120        4.11750373564507        0.83343286450111
H            4.02574147255199        2.74149811461077        1.56867805388283
H            3.02591081510134        3.79465345153356        2.56313137588964
H            2.54572381466504        0.95300912630926        2.71434579921855
H            0.57843070460099       -1.72074204998659        2.00273577138390
H            1.35305043650783       -0.88442910999073        3.35584521776319
H           -0.40268590346889       -0.81445387184338        3.12862564415782
H           -2.76948292467273       -2.62826268546567        0.21572613593113
H           -2.03726935963070       -4.93754434180455       -0.08483054479333
H            0.34303593131892       -5.43555590897519       -0.60492532217599
H            1.94555232383105       -3.57353799305211       -0.83174666644659
H            2.65056212188132       -2.73500202092268        1.40668798609704
H            4.90202361397012       -2.29489226902443        2.29241598177755
H            6.24244723447665       -0.41571405358889        1.46866126359908
H            5.35874939100983        1.09236538014120       -0.28230152117906
H            3.85322457595730        2.30383230761872       -2.23700412820507
H            2.12848752136397        2.87822179722789       -3.91223352574159
H            0.07171637949890        1.56082721763120       -4.09078117911018
H           -0.35761866010359       -0.33361063576000       -2.56213638405969
H           -3.31678605937382        1.53518429372428        3.31443863782923
H           -1.78024761814684        1.39525787898250        2.44815564066185
H           -2.52160962085796       -0.03302346107805        3.16638733840179
H           -5.28800387897706        1.37519359036181        2.22298572202621
H           -7.49624089203778        0.91116960303265       -0.76635349924849
H           -7.24255785733986        2.01826945953739        0.59148386063392
H           -7.61752444705852        0.32421901734459        0.89538391109369
H           -5.58056516014061       -0.10511638626790       -1.75238226419799
H           -2.19578563469998       -1.35139977674121       -1.98871141869127
H           -3.83278353967694       -1.40131564595706       -2.64407993740636
H           -2.86207573000319        0.05504200474143       -2.83219137515976
H           -0.98269394266976        3.44535301490401       -1.18625042220351
H           -1.49819297697633        1.76895204102585       -1.44316238940539
H           -2.19045594338793        2.70204681329404       -0.12838951057440
H            0.97357429453445        3.80209695118133       -0.03577925273620
