  72
        -98.63221636
 C          3.1781607406        3.6363990044        1.2828265198
 C          2.0087956708        2.7229800919        1.0775769169
 C          1.7300051076        1.7235214937        1.9962196743
 C          0.6832472801        0.8365131053        1.8068227523
 C          0.4089232269       -0.1512874521        2.9058439856
 C         -0.1394908073        0.9307096689        0.6713186265
 B         -1.2468277206       -0.1346328707        0.3569940302
 C         -0.8581117554       -1.6620517226        0.3354190007
 C         -1.8135152074       -2.5880172349        0.7749139934
 C         -1.5266399638       -3.9304142415        0.9328314465
 C         -0.2573829747       -4.4032864419        0.6411204567
 C          0.7055580923       -3.5239098051        0.1813260068
 C          0.4152276359       -2.1731546918        0.0267283319
 N          1.4472897495       -1.3338288245       -0.4399668899
 C          2.5943339731       -1.0269567141        0.2549288357
 C          3.0453416779       -1.5193602448        1.4704836569
 C          4.2385170980       -1.0272364332        1.9622047562
 C          4.9741928960       -0.0722836281        1.2628971575
 C          4.5410030863        0.4042589609        0.0416587057
 C          3.3459471884       -0.0768584102       -0.4747473488
 C          2.6277306038        0.1559940091       -1.6940917714
 C          2.8749498457        0.9223020345       -2.8246689832
 C          1.9946850597        0.8428026799       -3.8860267236
 C          0.8899728136       -0.0059009434       -3.8391255121
 C          0.6150001981       -0.7675919327       -2.7187920256
 C          1.4718200454       -0.6572270232       -1.6343760925
 C         -2.7667341447        0.2417327063        0.1941340042
 C         -3.4307953601        0.9646355326        1.2009834985
 C         -2.7041200861        1.4086875194        2.4358480146
 C         -4.7834195762        1.2469746193        1.0955287459
 C         -5.5280028574        0.8463188576       -0.0034081830
 C         -6.9839592555        1.1824394608       -0.1106902827
 C         -4.8757417610        0.1458606293       -1.0054924651
 C         -3.5269257179       -0.1615009992       -0.9171420963
 C         -2.8856059733       -0.8867894262       -2.0625121242
 C          0.0975449431        1.9948362018       -0.2152680484
 C         -0.7764888395        2.2112018183       -1.4151056682
 C          1.1656874647        2.8549277166       -0.0132510556
 H          3.0574478011        4.2122128908        2.2002743634
 H          3.2832903145        4.3281921310        0.4507638965
 H          4.0932793220        3.0531811297        1.3731996946
 H          2.3527725118        1.6240725980        2.8740765245
 H         -0.1178937214        0.3496487916        3.7196776990
 H         -0.2028331488       -0.9783403427        2.5627564218
 H          1.3430753199       -0.5347368003        3.3084432980
 H         -2.8039405356       -2.2273317822        1.0107754800
 H         -2.2903082301       -4.6091992685        1.2829728504
 H         -0.0217654534       -5.4499761001        0.7627020024
 H          1.6968495025       -3.8773319975       -0.0638827318
 H          2.4836475663       -2.2661967918        2.0107654853
 H          4.6136046945       -1.3921851535        2.9076618868
 H          5.9016326829        0.2886706659        1.6830298876
 H          5.1195189573        1.1332281859       -0.5060409974
 H          3.7475332915        1.5557987650       -2.8773876911
 H          2.1713635037        1.4279165857       -4.7763003119
 H          0.2391725392       -0.0730736656       -4.6995275746
 H         -0.2252054981       -1.4415864599       -2.6930581990
 H         -2.4122617628        0.5441569723        3.0285654992
 H         -3.3391227471        2.0462086135        3.0468435432
 H         -1.8032761898        1.9533277693        2.1708169112
 H         -5.2717515858        1.7943475524        1.8898777838
 H         -7.1052429976        2.1962382141       -0.4942268025
 H         -7.4647444455        1.1344605964        0.8641618469
 H         -7.4911805285        0.5009628214       -0.7896591292
 H         -5.4336774140       -0.1722843034       -1.8753778084
 H         -2.1943551165       -0.2236142083       -2.5778597221
 H         -2.3301209537       -1.7484152984       -1.7043374608
 H         -3.6361160115       -1.2229700054       -2.7747236955
 H         -1.8209063955        2.0575013346       -1.1612659878
 H         -0.6491279941        3.2204386487       -1.8013042823
 H         -0.5062731865        1.5128567474       -2.2039231347
 H          1.3445247032        3.6456349967       -0.7286896822
