  88
       -148.47767514
 O          8.8218435800       -2.4691697052       -0.8872959122
 C          8.0818244913       -1.7131455157       -0.2862375285
 C          8.5983583442       -0.5237743180        0.4343391796
 C          7.9901697050       -0.0367958259        1.5901062153
 C          8.5289524175        1.0535425953        2.2478316597
 C          9.6696689667        1.6704072027        1.7595462517
 C         10.2864179853        1.1842423176        0.6176519465
 C          9.7599474061        0.0870899273       -0.0358150053
 C          6.6130885367       -1.9450189960       -0.2422277560
 C          6.1529484406       -3.2838129531       -0.2685085622
 C          4.8213576255       -3.5728796953       -0.2520466139
 C          3.8752048726       -2.5248681867       -0.2303085856
 N          2.5652089030       -2.8061323103       -0.2082583919
 C          1.7141390951       -1.7972325774       -0.2037275206
 C          0.2984787458       -2.0762912048       -0.1623736146
 C         -0.1424252184       -3.4014493609       -0.0765776597
 C         -1.4800523678       -3.6995311467        0.0002918941
 C         -2.4179677989       -2.6620812486       -0.0249870594
 N         -3.7928106144       -2.9419253630        0.0760275936
 C         -4.4236660371       -3.7621854685       -0.8648724878
 C         -3.7576749722       -4.2675463174       -1.9747213465
 C         -4.4125466276       -5.0794667106       -2.8880465263
 C         -5.7467012385       -5.3887506718       -2.7167782138
 C         -6.4365281011       -4.8591533194       -1.6367119267
 C         -5.7882557648       -4.0471161237       -0.7243838851
 O         -6.5475748703       -3.5294562795        0.2943520875
 C         -5.9241692079       -2.6975565739        1.1891261835
 C         -6.7080555841       -2.1708734085        2.1993102678
 C         -6.1473821315       -1.3523131022        3.1677684533
 C         -4.7938795489       -1.0865433100        3.1292001573
 C         -4.0040492611       -1.6103054224        2.1175154588
 C         -4.5566119872       -2.3992029089        1.1154317015
 C         -1.9913431636       -1.3480202981       -0.1336379245
 C         -0.6358805241       -1.0218103110       -0.1900025532
 C         -0.1725997426        0.3574761650       -0.2433455850
 C         -1.0573693906        1.4359337658       -0.2748321474
 C         -0.6065421201        2.7461102124       -0.2549899861
 N         -1.5352324576        3.8026561718       -0.2445105282
 C         -1.5327948213        4.7628718068       -1.2617805040
 C         -0.6761425468        4.6872555794       -2.3532078147
 C         -0.6980737323        5.6577716738       -3.3431503277
 C         -1.5854496399        6.7121429374       -3.2681307420
 C         -2.4750828545        6.7805022108       -2.2066493430
 C         -2.4581709235        5.8140110909       -1.2179332084
 O         -3.3950708071        5.9295052828       -0.2222371965
 C         -3.4183966817        4.9534566053        0.7412905324
 C         -4.3896480399        5.0679407392        1.7191141105
 C         -4.4581949177        4.1446781073        2.7512340526
 C         -3.5321208604        3.1232191481        2.8086447430
 C         -2.5571647016        3.0036369805        1.8303096238
 C         -2.4997244826        3.8950832487        0.7653912840
 C          0.7668857124        3.0093125310       -0.2309582316
 C          1.6549222428        1.9622910473       -0.2344576214
 C          1.2086278341        0.6364611053       -0.2368169122
 C          2.1702478979       -0.4413876739       -0.2278520635
 N          3.4574683883       -0.1529584182       -0.2404701682
 C          4.3310428467       -1.1719834524       -0.2379139844
 C          5.7143322921       -0.9049224769       -0.2392470195
 H          7.1131155926       -0.5271077343        1.9857275628
 H          8.0576430376        1.4235789574        3.1462280378
 H         10.0821154799        2.5255678346        2.2738993559
 H         11.1804503050        1.6580836276        0.2410252498
 H         10.2302205884       -0.3114364310       -0.9223686804
 H          6.8942605350       -4.0684564516       -0.2971920236
 H          4.4579768909       -4.5886195485       -0.2611032805
 H          0.6044121749       -4.1790411182       -0.0515849512
 H         -1.8158579239       -4.7210701974        0.0947979622
 H         -2.7203619437       -4.0187613522       -2.1337520820
 H         -3.8672556294       -5.4630158970       -3.7364501270
 H         -6.2590197011       -6.0249060208       -3.4208204199
 H         -7.4850641747       -5.0596844161       -1.4857088540
 H         -7.7567690546       -2.4208483585        2.2124270886
 H         -6.7673753705       -0.9424023767        3.9489581183
 H         -4.3355748382       -0.4729876282        3.8892610251
 H         -2.9443129819       -1.4107480074        2.1183677550
 H         -2.7460528268       -0.5789418443       -0.1683601493
 H         -2.1223461464        1.2739935808       -0.3172582007
 H          0.0093016075        3.8588675640       -2.4375748227
 H         -0.0155400570        5.5760373669       -4.1749294288
 H         -1.6022712657        7.4729094597       -4.0321753816
 H         -3.1981707557        7.5764395883       -2.1289187663
 H         -5.0797681506        5.8938773864        1.6563619962
 H         -5.2226739956        4.2384936976        3.5059330571
 H         -3.5551990266        2.4094944041        3.6174388145
 H         -1.8276184752        2.2131461534        1.9066003778
 H          1.1146570913        4.0308165047       -0.2011589495
 H          2.7194169026        2.1345576910       -0.2182810385
 H          6.0353446892        0.1252125655       -0.2623490674
