  47
        -67.18509557
 C         -1.7947000594       -2.4426691108       -1.1247359411
 C         -1.0682505760       -1.7508457242        0.0579563769
 C         -1.5607133837       -2.2494063240        1.4353412549
 C          0.3961090836       -2.1476344386       -0.0127165924
 C          0.7266926050       -3.4953437497       -0.0408347454
 C          2.0411180851       -3.9239603709       -0.0706685864
 C          3.0590428192       -2.9867806012       -0.0702611532
 C          2.7565390134       -1.6413692426       -0.0453954505
 C          1.4275344781       -1.2088815653       -0.0176132431
 N          1.1328451682        0.1412349020        0.0052859560
 C          2.2138427246        1.0673825737        0.0108924650
 C          2.7032534806        1.5522586877        1.2171237456
 C          3.7618397892        2.4433688346        1.2222262523
 C          4.3347049862        2.8491063108        0.0282759608
 C          3.8485128082        2.3637527336       -1.1746089113
 C          2.7893075864        1.4737177835       -1.1868306271
 C         -0.1702334271        0.6095792219       -0.0150676550
 C         -0.3510834397        2.0127896557       -0.0532313513
 C         -1.5942722778        2.5582143891       -0.0671524905
 C         -2.7365750122        1.7356635452       -0.0468558553
 C         -4.0216782315        2.3127948100       -0.0564760090
 C         -5.1450953801        1.5379973762       -0.0347286084
 C         -5.0050360166        0.1449868449       -0.0031650414
 C         -3.7696589218       -0.4411462145        0.0051155271
 C         -2.5747217658        0.3213940164       -0.0156046995
 C         -1.2647207697       -0.2419539154       -0.0029233324
 H         -2.3593367707       -1.7246959478       -1.7117805919
 H         -1.0672129026       -2.9026482940       -1.7900037874
 H         -2.4703828014       -3.2214040744       -0.7794250948
 H         -2.5634022257       -1.9049169875        1.6621891408
 H         -0.8948045058       -1.8686187048        2.2083209091
 H         -1.5416963594       -3.3351814701        1.4783883764
 H         -0.0624939249       -4.2318134011       -0.0410432011
 H          2.2668051096       -4.9792381099       -0.0906560028
 H          4.0918961749       -3.3012541924       -0.0900070803
 H          3.5549591680       -0.9156957264       -0.0455790404
 H          2.2479093874        1.2278516436        2.1413323048
 H          4.1404254031        2.8201669634        2.1606062689
 H          5.1612078583        3.5435034713        0.0349922382
 H          4.2946420812        2.6785496469       -2.1061143852
 H          2.4009360672        1.0872580027       -2.1177852638
 H          0.5170543146        2.6526568292       -0.0706966760
 H         -1.7204836911        3.6308968038       -0.0934064723
 H         -4.0957128882        3.3910441329       -0.0816017499
 H         -6.1287151566        1.9833035393       -0.0422207372
 H         -5.8894050325       -0.4762396042        0.0137716521
 H         -3.7294466052       -1.5143591692        0.0253323446
