  47
  -66.8801179804000       0.575715726132493      !
 C         -1.7947000594       -2.4426691108       -1.1247359411
 C         -1.0682505760       -1.7508457242        0.0579563769
 C         -1.5607133837       -2.2494063240        1.4353412549
 C          0.3961090836       -2.1476344386       -0.0127165924
 C          0.7266926050       -3.4953437497       -0.0408347454
 C          2.0411180851       -3.9239603709       -0.0706685864
 C          3.0590428192       -2.9867806012       -0.0702611532
 C          2.7565390134       -1.6413692426       -0.0453954505
 C          1.4275344781       -1.2088815653       -0.0176132431
 N          1.1328451682        0.1412349020        0.0052859560
 C          2.2138427246        1.0673825737        0.0108924650
 C          2.7032534806        1.5522586877        1.2171237456
 C          3.7618397892        2.4433688346        1.2222262523
 C          4.3347049862        2.8491063108        0.0282759608
 C          3.8485128082        2.3637527336       -1.1746089113
 C          2.7893075864        1.4737177835       -1.1868306271
 C         -0.1702334271        0.6095792219       -0.0150676550
 C         -0.3510834397        2.0127896557       -0.0532313513
 C         -1.5942722778        2.5582143891       -0.0671524905
 C         -2.7365750122        1.7356635452       -0.0468558553
 C         -4.0216782315        2.3127948100       -0.0564760090
 C         -5.1450953801        1.5379973762       -0.0347286084
 C         -5.0050360166        0.1449868449       -0.0031650414
 C         -3.7696589218       -0.4411462145        0.0051155271
 C         -2.5747217658        0.3213940164       -0.0156046995
 C         -1.2647207697       -0.2419539154       -0.0029233324
 H         -2.3593367707       -1.7246959478       -1.7117805919
 H         -1.0672129026       -2.9026482940       -1.7900037874
 H         -2.4703828014       -3.2214040744       -0.7794250948
 H         -2.5634022257       -1.9049169875        1.6621891408
 H         -0.8948045058       -1.8686187048        2.2083209091
 H         -1.5416963594       -3.3351814701        1.4783883764
 H         -0.0624939249       -4.2318134011       -0.0410432011
 H          2.2668051096       -4.9792381099       -0.0906560028
 H          4.0918961749       -3.3012541924       -0.0900070803
 H          3.5549591680       -0.9156957264       -0.0455790404
 H          2.2479093874        1.2278516436        2.1413323048
 H          4.1404254031        2.8201669634        2.1606062689
 H          5.1612078583        3.5435034713        0.0349922382
 H          4.2946420812        2.6785496469       -2.1061143852
 H          2.4009360672        1.0872580027       -2.1177852638
 H          0.5170543146        2.6526568292       -0.0706966760
 H         -1.7204836911        3.6308968038       -0.0934064723
 H         -4.0957128882        3.3910441329       -0.0816017499
 H         -6.1287151566        1.9833035393       -0.0422207372
 H         -5.8894050325       -0.4762396042        0.0137716521
 H         -3.7294466052       -1.5143591692        0.0253323446
  47
  -66.8795101562000       0.302601747073074      !
 C         -1.7385044005       -2.4175942906       -1.1919494102
 C         -1.0692497511       -1.7524289618        0.0389100502
 C         -1.6287980308       -2.2790468720        1.3798717953
 C          0.3967516909       -2.1493628193        0.0255618997
 C          0.7260963986       -3.4977266063        0.0097490772
 C          2.0400391312       -3.9283951698        0.0071111466
 C          3.0589090892       -2.9922788803        0.0095220146
 C          2.7575365873       -1.6464797957        0.0198525188
 C          1.4290364428       -1.2116689429        0.0390505566
 N          1.1358999017        0.1392765184        0.0587847086
 C          2.2149019231        1.0658227509        0.0146043576
 C          2.8880034942        1.4074063386        1.1809893858
 C          3.9419405069        2.3027955736        1.1305056680
 C          4.3248529848        2.8589410855       -0.0790333837
 C          3.6553365084        2.5168943929       -1.2424929026
 C          2.6031312596        1.6199446439       -1.1996241265
 C         -0.1675101160        0.6081116338        0.0382217964
 C         -0.3490139636        2.0114448160        0.0761428294
 C         -1.5915380449        2.5580346442        0.0558494056
 C         -2.7331215137        1.7367032629       -0.0079954342
 C         -4.0173627995        2.3148887826       -0.0397364727
 C         -5.1400725879        1.5406633440       -0.0964278018
 C         -5.0000057094        0.1476133543       -0.1256566962
 C         -3.7653004613       -0.4393345230       -0.0957714766
 C         -2.5713731242        0.3223746710       -0.0323334742
 C         -1.2621758287       -0.2424406630        0.0016969405
 H         -2.4467329435       -3.1872054595       -0.8974776417
 H         -2.2549399388       -1.6828414394       -1.8017236295
 H         -0.9830470882       -2.8840266639       -1.8191848871
 H         -1.6247708053       -3.3655783921        1.3974971811
 H         -2.6367576446       -1.9279176165        1.5699961394
 H         -0.9948329012       -1.9250510953        2.1919057137
 H         -0.0640168943       -4.2328996834       -0.0059187146
 H          2.2646883847       -4.9839946213       -0.0019323996
 H          4.0915965523       -3.3076416107       -0.0014514847
 H          3.5570062918       -0.9221273020        0.0113247273
 H          2.5795023841        0.9677628809        2.1183464932
 H          4.4624812501        2.5691159948        2.0383296935
 H          5.1452394311        3.5597912734       -0.1151790606
 H          3.9543188674        2.9474761964       -2.1870838051
 H          2.0741063478        1.3430948879       -2.1001320282
 H          0.5176953018        2.6509438916        0.1307890697
 H         -1.7171943185        3.6304511525        0.0896674781
 H         -4.0915275234        3.3930803802       -0.0175363289
 H         -6.1232874676        1.9864871349       -0.1185922444
 H         -5.8839990471       -0.4728161977       -0.1729490378
 H         -3.7241900071       -1.5119623333       -0.1320022603
  47
  -66.8786492541000       0.121682526794433      !
 C         -1.4043598940       -2.1897352810       -1.5188418171
 C         -1.0549522615       -1.7498078834       -0.0790071145
 C         -1.8966161802       -2.4855400503        0.9945418188
 C          0.3967190790       -2.1548176758        0.1102650813
 C          0.7119755077       -3.5057639724        0.1591743680
 C          2.0193670855       -3.9479153731        0.2410378937
 C          3.0457953117       -3.0205952571        0.2538993473
 C          2.7578728181       -1.6723318647        0.2106724677
 C          1.4352563726       -1.2237549091        0.1569678192
 N          1.1456704634        0.1302546493        0.1385432715
 C          2.2046607071        1.0647496795       -0.0051140178
 C          3.0750070195        1.3241421876        1.0473683765
 C          4.1108858348        2.2258980851        0.8786506334
 C          4.2780632731        2.8776674164       -0.3319071472
 C          3.4055986064        2.6275728446       -1.3782622563
 C          2.3733736221        1.7215061073       -1.2191163604
 C         -0.1607085771        0.5963989853        0.1555225155
 C         -0.3436622953        1.9871025252        0.3460970985
 C         -1.5848479106        2.5369285832        0.3410449317
 C         -2.7222071523        1.7322299195        0.1360124304
 C         -4.0016390569        2.3188559323        0.0789525270
 C         -5.1181278620        1.5610773373       -0.1269495359
 C         -4.9779889850        0.1756837746       -0.2749057411
 C         -3.7490625378       -0.4207899356       -0.2117009327
 C         -2.5609567663        0.3251563729       -0.0084391629
 C         -1.2545143471       -0.2456097506        0.0329190752
 H         -0.6711391071       -1.7689276542       -2.2055020282
 H         -1.3646552005       -3.2725858397       -1.6062747673
 H         -2.3844681442       -1.8454765902       -1.8292900256
 H         -2.4990476750       -3.2780360743        0.5565983805
 H         -2.5530044912       -1.7988324214        1.5196332679
 H         -1.2404057589       -2.9334461911        1.7377680673
 H         -0.0836775416       -4.2340878713        0.1232091061
 H          2.2335418510       -5.0050654365        0.2785508151
 H          4.0750902219       -3.3443432765        0.2959157343
 H          3.5671190126       -0.9596136289        0.2088058684
 H          2.9340384687        0.8159866510        1.9901310245
 H          4.7879999617        2.4215294006        1.6966428946
 H          5.0865562757        3.5813754499       -0.4594472593
 H          3.5308618741        3.1360936316       -2.3224472893
 H          1.6866729371        1.5183083309       -2.0279434546
 H          0.5212980811        2.6110480126        0.5077616626
 H         -1.7134513631        3.5990660555        0.4904484170
 H         -4.0765066668        3.3909614420        0.1954987104
 H         -6.0968430719        2.0143655076       -0.1764825927
 H         -5.8569415461       -0.4312530909       -0.4401808008
 H         -3.7080103903       -1.4883788646       -0.3261625230
