116
 energy: -179.820407773803 gnorm: 0.000061203755 xtb: 6.7.1 (edcfbbe)
C          -12.88721232234752       -2.58289306348799       -0.19050562119823
C          -12.92861846236213       -1.26900178311040        0.24734413380726
C          -11.77150406402007       -0.51656899007939        0.29470658123808
C          -10.55181796517383       -1.07058466324585       -0.09175308894636
C           -9.35446839849305       -0.24640277101103       -0.03173829722849
N           -9.43996033353327        1.10925473826305       -0.11826282106358
C           -8.21791198036511        1.57875645518850       -0.07263090685425
C           -7.89582335801868        2.99541803072760       -0.10168196980039
C           -8.74107430787166        3.85019409079660       -0.80955484667293
C           -8.47964287789198        5.20495154863512       -0.86237880996804
C           -7.37492831630189        5.72696459332801       -0.20826087498071
C           -6.54518949215905        4.88791312447804        0.51653831765044
C           -6.80283381505679        3.53112789919351        0.57770140259731
N           -7.30684226766013        0.56067137300109        0.03986119306398
C           -5.90472194816036        0.64944819978067        0.06778089314785
C           -5.22900945229270        1.30018294893305       -0.95911752573757
C           -3.84926296460511        1.34633586194702       -0.95002948056740
C           -3.12625679882480        0.73591524090252        0.07085489622305
C           -1.64914391578502        0.74819895500610        0.05745763199018
C           -0.95601207723655        1.94181630460956        0.29910113102195
C           -1.63668055730830        3.15568368119395        0.58106702078881
C           -0.95292430850467        4.30327819462298        0.83913052915125
C            0.45615275946000        4.30390067697816        0.84956938707815
C            1.14632553525099        3.15929214791999        0.59396804160510
C            0.47354087707840        1.94465833215895        0.29716115742874
C            1.17216660727789        0.75638060276743        0.03782268409494
C            2.64795643035624        0.75078599952088        0.02864108473296
C            3.35276979122894        0.02847254752290        0.98793246155087
C            4.73120312985439       -0.02537081956527        0.95919054915372
C            5.43896250919694        0.64290448728024       -0.03803272146373
C            6.88949487698850        0.57329322310519       -0.13165441895666
N            7.66220187720822        1.59741094701745       -0.38253321737535
C            8.93414762104685        1.11567142777464       -0.37379512193663
C           10.14333348895050        1.84398986664266       -0.54942464994066
C           10.13252732994818        3.22793519646018       -0.75267908962684
C           11.31138027425913        3.91821615289212       -0.88295501718848
C           12.52003766468135        3.22877424192470       -0.80672258605823
C           12.54201695046158        1.86732705310752       -0.61375404915188
C           11.35837735976023        1.12427242106808       -0.48582921995469
C           11.34682036520602       -0.31856929141541       -0.31739384980137
C           12.53020737585012       -1.07040323773790       -0.33627965082673
C           12.52643739713890       -2.44050302838141       -0.22445938639466
C           11.32280898837601       -3.12802035265682       -0.10621523894869
C           10.14147054651320       -2.42919086196916       -0.07517303378575
C           10.12556552983182       -1.02937126551869       -0.15632374879435
C            8.93087989979654       -0.25619909018513       -0.12693513999343
N            7.60597606609579       -0.59232813499636        0.03904709241390
C            7.02391591843286       -1.84113517650520        0.32768226574126
C            6.09781174978552       -2.38455661988248       -0.55533942396656
C            5.47840020295393       -3.58225574749356       -0.24811110983607
C            5.78104977358929       -4.24101936143566        0.93175026814802
C            6.70687500673505       -3.70022227469742        1.80952853838761
C            7.32616926078943       -2.49951035612028        1.51594313239311
C            4.73846688560256        1.40480460627581       -0.97146172000830
C            3.35982063462771        1.45364713520400       -0.94044491672886
C            0.47658480825613       -0.43654621759044       -0.21341670768371
C            1.15120690441566       -1.64873482923462       -0.51755025554107
C            0.46407415590156       -2.79732025651597       -0.76300263238037
C           -0.94450114194305       -2.80414323099892       -0.73470233587541
C           -1.63056779968051       -1.65989043792894       -0.46843325918974
C           -0.95274566089774       -0.44189139579931       -0.19610716944067
C           -3.81284009368431        0.09711868126440        1.09902662152018
C           -5.19267821173433        0.05509022473652        1.10377965228844
C           -8.02345772486227       -0.61601811171677        0.07607250622276
C           -7.37985798851988       -1.91562608254609        0.21816366858841
C           -6.29738527456058       -2.27251175841466       -0.58464737904985
C           -5.67560118655679       -3.49538144831704       -0.41508708044133
C           -6.12584933635312       -4.37896683227832        0.55116387729136
C           -7.20962377071545       -4.03733042971917        1.34436812507920
C           -7.83216234036956       -2.81469847904557        1.18334861833161
C          -10.52114849013275       -2.38636549812167       -0.54972883828953
C          -11.68219990426828       -3.13481465314344       -0.59329232935576
H          -13.79151782827777       -3.17296987786331       -0.22502139716410
H          -13.86818077872262       -0.83142226857634        0.55300107408467
H          -11.78757945617470        0.50928585110733        0.62890490898092
H           -9.59779624661200        3.42694653558538       -1.31023225518768
H           -9.13742888733415        5.85816407634175       -1.41669843731261
H           -7.16667595552044        6.78568838072505       -0.25463053144463
H           -5.69411229023127        5.29323011354266        1.04455082424245
H           -6.16383263993409        2.89420877102431        1.17156353793857
H           -5.79038870770004        1.76069355665946       -1.75867849307003
H           -3.32099522070302        1.84308856814994       -1.75042606418295
H           -2.71666216791767        3.15086819864063        0.59357910548577
H           -1.48406692900371        5.21977111014646        1.05016194634134
H            0.98311271041627        5.21982847988475        1.07252259968773
H            2.22551970032374        3.15826237541457        0.62267757047098
H            2.80935795058137       -0.49117032281202        1.76401530148252
H            5.25721442086405       -0.57747424547944        1.72365576124057
H            9.17513981045122        3.72365430160078       -0.79446673169589
H           11.30832629538265        4.98709911613349       -1.03775874679923
H           13.45111760949894        3.76913215684533       -0.90011381934848
H           13.50138451706996        1.37776247814840       -0.55807123938516
H           13.47949396891497       -0.57282734403993       -0.45179078978526
H           13.45891257355986       -2.98523695288912       -0.24312244617478
H           11.31601357377292       -4.20625084401655       -0.04418174258439
H            9.20961552032504       -2.96783199694565       -0.00480068757011
H            5.86851281681462       -1.86318363165457       -1.47296596511682
H            4.75847393043910       -4.00214538113778       -0.93441193506029
H            5.29571834783745       -5.17559957359536        1.16867895417459
H            6.94343255544714       -4.21133191653993        2.73066785467989
H            8.04353301587485       -2.06522997073726        2.19722259293365
H            5.29367969151266        1.94289422920121       -1.72410075606734
H            2.82082635804528        2.02519068717283       -1.68231499816514
H            2.23032709132770       -1.64408476037507       -0.55808475373580
H            0.99273228823272       -3.71124042482874       -0.99133060570823
H           -1.47337844464416       -3.72381454103470       -0.93774475963008
H           -2.71057867764043       -1.66248301863642       -0.46588918659033
H           -3.25665273816321       -0.36768308020136        1.89967160579667
H           -5.72346922696296       -0.43936165110925        1.90361656507474
H           -5.95144021680302       -1.59583689983184       -1.35318948417500
H           -4.83739051247573       -3.76010919836009       -1.04341303157200
H           -5.63692509589373       -5.33273053671838        0.68343915250042
H           -7.56746337011355       -4.72533071421089        2.09622391207118
H           -8.67340314289674       -2.54268282419417        1.80406028876675
H           -9.58965504192677       -2.81876868268892       -0.88390114841697
H          -11.64753381568983       -4.15467498930451       -0.94917847221189
