116
 energy: -179.820477278472 gnorm: 0.000107969034 xtb: 6.7.1 (edcfbbe)
C          -12.95280075211346       -2.73673839875574       -0.63984227920471
C          -13.02194621403829       -1.46968072301178       -0.08347811745938
C          -11.87707836973131       -0.71022173707717        0.05736948325755
C          -10.64217207782317       -1.21071209576448       -0.35285151232466
C           -9.45782384681968       -0.38136048383101       -0.19161537140819
N           -9.55876701184201        0.97542912995591       -0.15823877336383
C           -8.34391369825634        1.45222299955806       -0.04270758439839
C           -8.03895521494139        2.86886967415927        0.06262641991751
C           -8.88664687100419        3.77577596889821       -0.57406416613177
C           -8.64187045224026        5.13251129514562       -0.49819696968993
C           -7.55153017925441        5.60464320461804        0.21530547873535
C           -6.71943831683336        4.71176527073898        0.86961768052329
C           -6.96049126455752        3.35224167108962        0.80191969087198
N           -7.42300093331607        0.43790933836901       -0.00078396112403
C           -6.02267479528737        0.53513590850500        0.06623920513161
C           -5.32954497313765        1.26342633238209       -0.89475859067204
C           -3.95049754470464        1.31075531742431       -0.85518682052081
C           -3.24526752934731        0.62762241923331        0.13188299915262
C           -1.76886571836883        0.63908468362988        0.14215625399326
C           -1.07864364148847        1.82363847085465        0.43374675527678
C           -1.76112961432899        3.02518343640491        0.76056908455738
C           -1.07930963885720        4.16403994411373        1.05961353589531
C            0.32976889072584        4.16809753397041        1.06741729984741
C            1.02187455375004        3.03417701485261        0.77272502121058
C            0.35078015678110        1.82886495473138        0.43678286713888
C            1.05230348685822        0.65083178984729        0.14273795699605
C            2.52843465346889        0.65219679002830        0.13080501011065
C            3.24212040486106       -0.07043086571611        1.08275928676768
C            4.62110002723254       -0.11372439433507        1.04843750459468
C            5.31972157618175        0.56280712259284        0.05026391520879
C            6.76943508754533        0.50998306500692       -0.05649466620459
N            7.51962189500057        1.53999843574618       -0.35055966818746
C            8.79981983397121        1.08210110279886       -0.34907796003632
C            9.99189970538840        1.82606268572665       -0.57024036614789
C            9.95143670559164        3.20212114006779       -0.81823050171201
C           11.11451489564577        3.90861453705551       -0.99503865824032
C           12.33692594010909        3.24363225861905       -0.92103020235111
C           12.38788918618638        1.88995514834340       -0.68386164489660
C           11.22094143190778        1.13057100753022       -0.50753164551658
C           11.23916283356881       -0.30597524532967       -0.29208724458600
C           12.43601707683248       -1.03624682591149       -0.30694322743039
C           12.45998323800723       -2.40184196292370       -0.15113777189352
C           11.27165967556704       -3.10708983834395        0.00959969605333
C           10.07806298914101       -2.42932981941600        0.03862778987461
C           10.03432048327669       -1.03338176347922       -0.08701895275294
C            8.82600910490479       -0.28156079203623       -0.06124439023308
N            7.51045726280295       -0.63655208450727        0.13686782920368
C            6.96056410036721       -1.88890704521865        0.47041959022123
C            6.04353027109345       -2.48468337787449       -0.38789972200882
C            5.45765506224252       -3.68733619607065       -0.03716030113616
C            5.78481772847403       -4.29888339525465        1.16146988374486
C            6.70163230144376       -3.70580593243789        2.01462063971746
C            7.28761167969684       -2.49985788653613        1.67735382183747
C            4.60905905161614        1.32465815257462       -0.87624436220126
C            3.23073741609860        1.36559489365821       -0.83756553232819
C            0.36064139262279       -0.53507788979102       -0.14738360888069
C            1.04085188906798       -1.73726950091260       -0.47738369411751
C            0.35845750033373       -2.87813023240637       -0.76771083181527
C           -1.05032671612975       -2.88485138003211       -0.76337327962298
C           -1.74114705045828       -1.74989658113216       -0.47049645316859
C           -1.06886295254900       -0.54165917946524       -0.14575698440529
C           -3.95010159022716       -0.08458163743929        1.09784573639229
C           -5.32944719269953       -0.13136041836846        1.07053473166317
C           -8.12485540994811       -0.74490906472159       -0.08679493811617
C           -7.46741747300193       -2.04473020912289       -0.04577393967998
C           -6.36114207013785       -2.31609663546578       -0.84963605049982
C           -5.72716320681123       -3.54217553700621       -0.77445442001449
C           -6.18870264302841       -4.51393479706257        0.09714228739009
C           -7.29603928444373       -4.25709574570094        0.88981346557863
C           -7.93085316915901       -3.03201104319774        0.82315542951635
C          -10.58329523621940       -2.47788739083910       -0.92968937093978
C          -11.73223612060523       -3.23370753811775       -1.06662468495979
H          -13.84758156883018       -3.33247791255716       -0.74757988544104
H          -13.97363149960989       -1.07430096997380        0.24152872580757
H          -11.91460097840987        0.27997692123219        0.48449292379264
H           -9.73211817264766        3.39072130072669       -1.12239081074585
H           -9.30156940200568        5.82656545344829       -0.99792427772594
H           -7.35639154819177        6.66547679987499        0.26985702321488
H           -5.87959327398413        5.07622390135569        1.44343824424636
H           -6.31999220615026        2.67089092649115        1.34236603119020
H           -5.87698979318496        1.78072616334265       -1.66887980507852
H           -3.40821644388608        1.86451297316854       -1.60736281898844
H           -2.84102250136641        3.01829496585932        0.77551409623899
H           -1.61237229524010        5.07078314652358        1.30513420380389
H            0.85487979378002        5.07728451707252        1.32028255334004
H            2.10117349947479        3.03368354667221        0.79955392650962
H            2.70570441488926       -0.59841332176849        1.85810845894251
H            5.15334795304525       -0.66381096745184        1.80987417549231
H            8.98437403736699        3.67893278956054       -0.85715890374450
H           11.08865100775495        4.97149666558695       -1.18502838139134
H           13.25581837098885        3.79703140183396       -1.05140816455387
H           13.35707053348936        1.41969421332243       -0.63204260393088
H           13.37375548165040       -0.52532265960081       -0.45412960440597
H           13.40215029106768       -2.92968840882660       -0.16806018991347
H           11.28613848667763       -4.18269564540473        0.10624463592884
H            9.15794972459125       -2.98245768651922        0.14255172394698
H            5.79482482324434       -1.99942062909236       -1.32015958333408
H            4.74448378702155       -4.14817928852451       -0.70391670068443
H            5.32540690452956       -5.23734728200025        1.43229772699665
H            6.95729071541474       -4.18009515758821        2.95023570824018
H            7.99815716143531       -2.02512345509744        2.33847495281234
H            5.15787209895668        1.86978246996410       -1.62839986961692
H            2.68400029752203        1.93942895260489       -1.57193794780462
H            2.12048336379017       -1.73050353909902       -0.50034356552520
H            0.89096727306436       -3.78491832365803       -1.01474122238416
H           -1.57599777754483       -3.79692230288377       -1.00535376644053
H           -2.82096009832046       -1.75384541406298       -0.48674202403776
H           -3.40849922524128       -0.60381512269638        1.87470195364715
H           -5.87463597904180       -0.68573211570307        1.81985473142379
H           -6.00562293152396       -1.56975362662891       -1.54585375497215
H           -4.87071404543890       -3.73985520449004       -1.40291027279947
H           -5.69057359735555       -5.47031961466015        0.15571151590694
H           -7.66288994504356       -5.01390391707019        1.56755874901785
H           -8.79049903122468       -2.82634696117029        1.44416602356145
H           -9.63912462372407       -2.86556058290000       -1.28267661891634
H          -11.67574707717529       -4.21566270538261       -1.51444360248026
