  101
       -158.99431599
 C         -0.3414610975       -0.6444344140        0.1657130998
 C          0.6975455286        0.3033176699        0.1223979460
 C          0.5354846015        1.7168163050        0.0260220880
 C          1.6322613617        2.6015841689       -0.0759119293
 C          1.4422532846        3.9645241293       -0.1200933730
 C          0.1716610033        4.5158810341       -0.0624504841
 C         -0.9296288448        3.6613837917        0.0087089693
 N         -2.2305210910        4.1847530962        0.0561845561
 C         -3.2113090374        3.8234787556        0.9579294990
 C         -3.1460132464        2.9525876681        2.0369546441
 C         -4.2820902083        2.7902002152        2.8065680053
 C         -5.4594004977        3.4799864886        2.5217032461
 C         -5.5235210893        4.3659393047        1.4651419611
 C         -4.3937343438        4.5471574104        0.6780620758
 C         -4.1028541979        5.3807467618       -0.4540884010
 C         -4.8525607588        6.2906940961       -1.1878509281
 C         -4.2586068755        6.9245452253       -2.2604978388
 C         -2.9396659826        6.6484720415       -2.6146122493
 C         -2.1737097157        5.7474503016       -1.9003385145
 C         -2.7568156215        5.1262666858       -0.8049465881
 C         -0.7506002626        2.2921279553        0.0415033784
 N          1.9845110146       -0.2178247574        0.2078531754
 N          2.1853762462       -1.5480667391        0.5087644052
 C          3.4860774408       -1.9801754980        0.6571753748
 C          3.7295730635       -3.2363039841        1.2322407478
 C          5.0250225157       -3.6579381856        1.4333045433
 C          6.1013948898       -2.8551479212        1.0843787698
 C          5.8667073464       -1.6212324471        0.4800359660
 N          6.9291995944       -0.7965901222        0.0951815754
 C          8.0324085623       -1.1759879670       -0.6470498199
 C          8.3529825989       -2.4130461964       -1.1864989118
 C          9.5204205429       -2.5137791093       -1.9190561927
 C         10.3495682389       -1.4131758848       -2.1228666579
 C         10.0216135060       -0.1736436977       -1.6116317030
 C          8.8530806566       -0.0475692650       -0.8720868022
 C          8.2072734376        1.0640497384       -0.2312637745
 C          8.5281159807        2.4085836545       -0.0996049644
 C          7.6754244755        3.2266570227        0.6144220748
 C          6.5270755011        2.7143412064        1.2132606113
 C          6.1889805942        1.3794682773        1.0972430320
 C          7.0232439590        0.5583193910        0.3518871885
 C          4.5673194197       -1.1900178421        0.2522851923
 N          1.2079537166       -2.4143077792        0.6347634451
 C         -0.0657775956       -1.9795634966        0.4399373620
 C         -1.1099206722       -2.9716864578        0.6063363622
 C         -0.8472773076       -4.1666438156        1.2877674751
 C         -1.8563628930       -5.0785357581        1.5171811780
 C         -3.1503237171       -4.8274196087        1.0899111706
 C         -3.4202174481       -3.6581881100        0.3814982272
 N         -4.7173027508       -3.3736623659       -0.0674745688
 C         -5.5528390916       -4.2308240438       -0.7550395679
 C         -5.3280623980       -5.5301912505       -1.1872464118
 C         -6.3385708344       -6.1625287933       -1.8858968750
 C         -7.5445125754       -5.5218705460       -2.1617625943
 C         -7.7636508850       -4.2198167771       -1.7592165516
 C         -6.7628627703       -3.5631033241       -1.0554172962
 C         -6.6410852324       -2.2359646576       -0.5208724994
 C         -7.4869333555       -1.1344325291       -0.4983939869
 C         -7.0537210647        0.0204758042        0.1209327121
 C         -5.8044732826        0.0787657168        0.7348323769
 C         -4.9497241025       -1.0066478476        0.7311307803
 C         -5.3632059437       -2.1604944750        0.0789341768
 C         -2.4027993973       -2.7517267325        0.1261625849
 H         -1.3571052958       -0.3190139082        0.0526529488
 H          2.6435981085        2.2272338661       -0.1437251092
 H          2.3007064988        4.6165096756       -0.1920967970
 H          0.0301132084        5.5847162598       -0.0615073911
 H         -2.2346048786        2.4262283598        2.2783927741
 H         -4.2571380199        2.1140387320        3.6489561218
 H         -6.3276377860        3.3200602674        3.1437931366
 H         -6.4298991859        4.9129783854        1.2536837167
 H         -5.8794103079        6.4925789300       -0.9223778957
 H         -4.8220945690        7.6394765147       -2.8413083604
 H         -2.5066046222        7.1487395462       -3.4683993068
 H         -1.1583209015        5.5273880257       -2.1937270549
 H         -1.6270697211        1.6666262500        0.0761797866
 H          2.7063711366        0.3984110503        0.5583244048
 H          2.8872585448       -3.8438176160        1.5146039886
 H          5.2065565761       -4.6203169316        1.8868274275
 H          7.1127417548       -3.1716838814        1.2825081608
 H          7.7082231621       -3.2681631025       -1.0517071773
 H          9.7942001343       -3.4673379894       -2.3456696850
 H         11.2554391780       -1.5343068620       -2.6976571556
 H         10.6542040069        0.6838769559       -1.7839068498
 H          9.4298000705        2.8007483106       -0.5447113705
 H          7.9033138640        4.2763702011        0.7233117106
 H          5.8889742723        3.3728840864        1.7841767999
 H          5.3139157249        0.9869603078        1.5951007277
 H          4.4234219607       -0.2693402991       -0.2915136650
 H          0.1538979738       -4.3499728684        1.6418026096
 H         -1.6428191943       -5.9915724416        2.0536404336
 H         -3.9481339602       -5.5197524231        1.3100696454
 H         -4.3898541988       -6.0294799824       -0.9978393924
 H         -6.1883320005       -7.1755903366       -2.2294084720
 H         -8.3113783395       -6.0522001542       -2.7067210783
 H         -8.6910942072       -3.7163541485       -1.9875050424
 H         -8.4626171762       -1.1866263979       -0.9578478983
 H         -7.6903501901        0.8923566349        0.1423710914
 H         -5.4992085826        0.9910752548        1.2258291021
 H         -3.9960206128       -0.9579410245        1.2354402411
 H         -2.6267165648       -1.8842378915       -0.4745069296
