68
 energy: -99.046394050205 gnorm: 0.000069543274 xtb: 6.7.1 (edcfbbe)
C           -7.07679666721304        0.53248385734354        0.36775688943658
C           -6.29029305479224       -0.21978650827825        1.22498142985760
C           -4.91542389727041       -0.21851799552350        1.09020152377452
C           -4.30350071893343        0.53665786258900        0.09123906886194
C           -2.83920712279839        0.56545691039029       -0.04925108942468
C           -2.07934566064497       -0.55262176914969        0.00069724403688
C           -2.65358099424050       -1.90720050738738       -0.00870870038099
C           -2.14932159311037       -2.88351758194320        0.84855850689575
C           -2.66987929437536       -4.16371303861373        0.84000800530513
C           -3.69177052104026       -4.49347197757236       -0.03461207005755
C           -4.18593163977222       -3.53576844338181       -0.90522513983399
C           -3.67204552788406       -2.25340875223065       -0.89479988812275
C           -0.61208938621925       -0.48568565071987        0.05755033820475
C            0.16812275850925       -1.31051682988440       -0.75117154274513
C            1.54378056118940       -1.21785735790200       -0.74115213052319
C            2.18326374335430       -0.30903698355594        0.10209560248553
N            3.57513183613054       -0.17889886579487        0.09282347737434
C            4.15108475389435        1.08785519504610        0.24104471637886
C            5.34727754074285        1.24440821565591        0.94100067036553
C            5.91281265179686        2.49666540770929        1.08191057887791
C            5.29510788725168        3.61157650380526        0.53946786643333
C            4.10369240956453        3.46253049677312       -0.15150749521506
C            3.53505582069093        2.21368156811906       -0.30654134117490
C            4.38453981316778       -1.30523792736480       -0.08902971941212
C            4.02709238995889       -2.52907586248935        0.47684492575149
C            4.82544967532715       -3.64093247000940        0.29300074126805
C            5.99306707759446       -3.55249500254706       -0.44715067113568
C            6.35428803349849       -2.33888390971393       -1.00903592516473
C            5.55808832922340       -1.22329889666767       -0.83841341243599
C            1.40748040497817        0.47815210038369        0.95482508761448
C            0.03359604608616        0.39383360078432        0.92649966436289
C           -2.25109700330976        1.90206914797198       -0.24363213072326
C           -1.28738232934635        2.12759633902761       -1.22530227798527
C           -0.74697245736364        3.38652664013674       -1.40188860786861
C           -1.16144648425183        4.44221410953945       -0.60619422264015
C           -2.13256297570403        4.23336814757608        0.35857910125578
C           -2.67863406574142        2.97574818292537        0.53469487187772
C           -5.10243920880524        1.30540726405337       -0.75330400568216
C           -6.47796385567297        1.29672402438566       -0.61988786272128
H           -8.15174629255087        0.52737366279042        0.47275456319774
H           -6.75147785607148       -0.80799942141503        2.00509156147398
H           -4.30479283052226       -0.79645854726704        1.76834980587871
H           -1.35333264879895       -2.62580952386335        1.53321865637180
H           -2.27637080139503       -4.90811483796413        1.51718562566795
H           -4.09775907378780       -5.49432072962410       -0.04188381711397
H           -4.97454190455419       -3.79111718384594       -1.59810591226914
H           -4.05159567076050       -1.51312730305267       -1.58367098019385
H           -0.31586363814121       -2.00796975307430       -1.42007200944330
H            2.13378488091971       -1.84065096159880       -1.39763876068020
H            5.82570640400579        0.37873972108359        1.37537776875802
H            6.83869220775332        2.60333323555044        1.62797922840968
H            5.73840870343097        4.58894823330488        0.65518139016491
H            3.61569485441574        4.32519417878710       -0.58092920342496
H            2.60952255188075        2.10152423310943       -0.85221645902079
H            3.12225992267677       -2.59825865002932        1.06284457208392
H            4.53778124484779       -4.58186768736120        0.73876404420733
H            6.61655566121140       -4.42270761691021       -0.58541034973213
H            7.25962465575658       -2.26156617523389       -1.59315108486826
H            5.83692992833922       -0.28102388961820       -1.28703263514296
H            1.89436352925409        1.16003895219906        1.63645725086633
H           -0.55239962518220        1.00649847589677        1.59522581545387
H           -0.97100806557357        1.30994823121555       -1.85643084197661
H           -0.00135865476834        3.54739976513169       -2.16741541848057
H           -0.73462547506481        5.42496874956647       -0.74261485560349
H           -2.46637867697271        5.05461526951636        0.97628416762323
H           -3.43405114768334        2.81376529835866        1.29090072887564
H           -4.63611171648282        1.90124265665906       -1.52550760016157
H           -7.08579850018828        1.89009637318956       -1.28767725461477
