68
 energy: -98.985595291886 gnorm: 0.000067679343 xtb: 6.7.1 (edcfbbe)
C           -6.12998186759533        0.24739711071089        2.62869830098943
C           -5.03922271335896       -0.60543832188417        2.73508268088281
C           -3.96616079739060       -0.47508692263780        1.88378180408462
C           -3.93733218053822        0.53232539844677        0.89947002818271
C           -2.83152102543359        0.63069178504270       -0.00297495651147
C           -2.04343997498264       -0.58551695742479       -0.27524609062898
C           -2.75521379793358       -1.75264485404605       -0.71710187416735
C           -2.30972694109824       -3.05317892099517       -0.41989018832604
C           -3.03659373122338       -4.15679109056041       -0.81006806998940
C           -4.22594153558133       -4.00745659349154       -1.50860189921950
C           -4.69068354676820       -2.73181897288413       -1.79762944782667
C           -3.97619166271577       -1.62305905595930       -1.40341437510465
C           -0.63668733068959       -0.53710438929498       -0.10624080181085
C            0.23931441602738       -1.41378470325418       -0.78868928487068
C            1.59953338858495       -1.29709295579713       -0.67700698886196
C            2.17357663058502       -0.30474285083946        0.12919073083078
N            3.55639552700073       -0.17768261124097        0.22843858428300
C            4.13716808853409        1.09067580220217        0.34365767367556
C            5.25930921664946        1.28277975032921        1.14984483316705
C            5.83255520958989        2.53478037427772        1.25617960490103
C            5.29607939771123        3.61296420406135        0.57116864351527
C            4.17902775124677        3.42800635837815       -0.22743273180920
C            3.60265720718714        2.17878183112197       -0.34700146395028
C            4.36989742683075       -1.31572722281665        0.19675658811182
C            3.96001345425665       -2.49308874037675        0.82306816437666
C            4.76413805544934       -3.61524075516668        0.78841300548436
C            5.98734693445655       -3.58255613844762        0.13854764123413
C            6.40041743430212       -2.41480001201928       -0.48232737513494
C            5.60062020024341       -1.28916485939008       -0.45960787883151
C            1.32152514257823        0.56961330680764        0.81750900879005
C           -0.03778431036493        0.46169723716740        0.69793627446037
C           -2.45291151635018        1.84366264436480       -0.65957011737460
C           -1.72285027022307        1.80713477028559       -1.86465729617442
C           -1.30706527173459        2.96608779705134       -2.47896848385128
C           -1.58591701574230        4.20295118888463       -1.91264821735789
C           -2.28540513868409        4.26159886697079       -0.71486141877520
C           -2.71485817999118        3.10873958315551       -0.09657185165971
C           -5.06022378426324        1.37670074956288        0.79879120862795
C           -6.13356959456411        1.23081011878140        1.64910080125445
H           -6.97284397462787        0.13970317727218        3.29482083845039
H           -5.03276733376962       -1.37760229712105        3.49106267079781
H           -3.11632120276061       -1.13475235124062        1.98095014133838
H           -1.41096223956020       -3.18347711950544        0.16512493193561
H           -2.68044401289770       -5.14640928928586       -0.56047469327041
H           -4.79038575093487       -4.87556461282712       -1.81460762973812
H           -5.61989606193023       -2.60699324091351       -2.33501417274308
H           -4.34018600737844       -0.63416720371085       -1.64212270541931
H           -0.17316129197393       -2.14606860814244       -1.46620790528229
H            2.24558322669239       -1.95726461392458       -1.23805256788535
H            5.67254230595815        0.44576632354921        1.69351276374670
H            6.69976456681035        2.67090841153691        1.88540567851368
H            5.74539736040557        4.59037010824658        0.65927604253978
H            3.75683871892383        4.26158462947677       -0.76895718045290
H            2.73809965371761        2.03529503001107       -0.97852314504306
H            3.01231478899361       -2.51560234435359        1.34076550011799
H            4.43711052926374       -4.51951098653246        1.28019527141446
H            6.61447804699183       -4.46070519528190        0.11634256309146
H            7.34996026670364       -2.38222945816855       -0.99594284337245
H            5.91963747060482       -0.38307634004867       -0.95365137110880
H            1.74953903231096        1.32909587243529        1.45576690395590
H           -0.67340766437903        1.13317494818710        1.25524591184819
H           -1.51333593733505        0.85027609834752       -2.32015289934659
H           -0.75991301146184        2.91234454051184       -3.40951479731865
H           -1.25427513234556        5.11053713771982       -2.39443217895366
H           -2.48725971612697        5.21986134452624       -0.25738537726337
H           -3.21519836206401        3.16759540005611        0.85884325640874
H           -5.09695092591684        2.11471576147957        0.01092819323165
H           -6.98960655412637        1.88254634097833        1.54555598503814
