  68
        -99.04637469
 C         -7.0780418455        0.5364208895        0.3791052954
 C         -6.2908394660       -0.2246141809        1.2278708363
 C         -4.9162840793       -0.2249165020        1.0900125934
 C         -4.3047878667        0.5366929182        0.0955076645
 C         -2.8410474397        0.5642885343       -0.0476735254
 C         -2.0802928842       -0.5533724873        0.0044182927
 C         -2.6538530761       -1.9081781943       -0.0064727344
 C         -2.1510207468       -2.8859352447        0.8498106057
 C         -2.6721239803       -4.1659200904        0.8385465773
 C         -3.6930657992       -4.4939011579       -0.0378024272
 C         -4.1853923780       -3.5348130428       -0.9079710498
 C         -3.6708436308       -2.2528338920       -0.8949748619
 C         -0.6131694215       -0.4857299253        0.0625230666
 C          0.1678015714       -1.3114314389       -0.7446649828
 C          1.5434400399       -1.2187211805       -0.7342344747
 C          2.1824787263       -0.3090562411        0.1084954922
 N          3.5740770620       -0.1780068350        0.0990315607
 C          4.1507148163        1.0881491718        0.2497094534
 C          5.3493491910        1.2414585917        0.9462747058
 C          5.9160973549        2.4928314240        1.0899273768
 C          5.2972294014        3.6100784440        0.5535993508
 C          4.1036314397        3.4641941071       -0.1342792909
 C          3.5337754229        2.2162421342       -0.2921526434
 C          4.3842199202       -1.3030118841       -0.0898008208
 C          4.0328483393       -2.5281546163        0.4769050660
 C          4.8323142469       -3.6381046646        0.2862771180
 C          5.9946032353       -3.5463731639       -0.4619010143
 C          6.3496081424       -2.3314398981       -1.0248106712
 C          5.5524534288       -1.2176467572       -0.8469959849
 C          1.4058662718        0.4783149995        0.9605113560
 C          0.0319610198        0.3945255150        0.9311723633
 C         -2.2514276312        1.8993757722       -0.2490229679
 C         -1.2898398784        2.1171642370       -1.2346910154
 C         -0.7477731462        3.3739282098       -1.4207635369
 C         -1.1588015173        4.4353653545       -0.6307878839
 C         -2.1276352154        4.2342083532        0.3378449917
 C         -2.6751528118        2.9784888831        0.5236216313
 C         -5.1047246909        1.3134814741       -0.7410289016
 C         -6.4797920965        1.3073425738       -0.6037104601
 H         -8.1526533462        0.5333723111        0.4872527458
 H         -6.7511739186       -0.8182744315        2.0042422500
 H         -4.3057865613       -0.8091587948        1.7628275157
 H         -1.3560185479       -2.6296513457        1.5361430211
 H         -2.2800315576       -4.9115786933        1.5151310576
 H         -4.0998289666       -5.4943865123       -0.0469933388
 H         -4.9730202454       -3.7887576225       -1.6024566510
 H         -4.0488866086       -1.5113341957       -1.5832990682
 H         -0.3160096642       -2.0093794119       -1.4131938649
 H          2.1334017150       -1.8419710303       -1.3903214128
 H          5.8287663710        0.3738727949        1.3757095374
 H          6.8438999665        2.5971039177        1.6331978031
 H          5.7413482554        4.5867888426        0.6717089837
 H          3.6147242145        4.3287359780       -0.5588650071
 H          2.6065217567        2.1066526166       -0.8355115689
 H          3.1319805666       -2.5997442800        1.0687028851
 H          4.5499055135       -4.5803075097        0.7327723597
 H          6.6186847545       -4.4153196270       -0.6054251462
 H          7.2506646446       -2.2514721740       -1.6151576782
 H          5.8262055244       -0.2739777297       -1.2958313627
 H          1.8926842973        1.1602098457        1.6422163114
 H         -0.5541191058        1.0082213344        1.5989144510
 H         -0.9768138121        1.2950748463       -1.8617361906
 H         -0.0038639203        3.5287183514       -2.1893144286
 H         -0.7306838493        5.4165262207       -0.7745523359
 H         -2.4584666893        5.0599419428        0.9512350285
 H         -3.4291963058        2.8230108768        1.2825703453
 H         -4.6394534914        1.9142566670       -1.5100472325
 H         -7.0879843482        1.9081573950       -1.2645163802
