  68
        -98.98047142
 C         -6.2505545412        0.1995264273        2.4763127609
 C         -5.1572582968       -0.6436172179        2.6283470085
 C         -4.0457305665       -0.4953771321        1.8319732136
 C         -3.9786753194        0.5204053538        0.8566184628
 C         -2.8342129584        0.6359702045        0.0076346960
 C         -2.0374809656       -0.5707287224       -0.2532475357
 C         -2.7395389218       -1.7546142026       -0.6671397809
 C         -2.2833181272       -3.0438594593       -0.3369062511
 C         -2.9998990520       -4.1632998867       -0.6991064084
 C         -4.1900282886       -4.0425197832       -1.4021093295
 C         -4.6644574212       -2.7786454921       -1.7255853961
 C         -3.9596158299       -1.6540974152       -1.3604738292
 C         -0.6320944205       -0.5151643436       -0.1005932674
 C          0.2388777541       -1.4065946460       -0.7751358413
 C          1.5988320041       -1.2926294889       -0.6752858220
 C          2.1828660128       -0.2875464347        0.1100190238
 N          3.5661916284       -0.1683335431        0.2002049032
 C          4.1578833682        1.0964147940        0.2889494015
 C          5.2930833679        1.2917239517        1.0763777878
 C          5.8768676425        2.5407245545        1.1562958239
 C          5.3382373093        3.6131337535        0.4637631529
 C          4.2081030077        3.4252358340       -0.3157667309
 C          3.6210803689        2.1788893703       -0.4092991938
 C          4.3681504770       -1.3149071037        0.1862093494
 C          3.9486443117       -2.4749846505        0.8383025661
 C          4.7385823489       -3.6073933737        0.8193047545
 C          5.9570075926       -3.6021523260        0.1595045885
 C          6.3797843603       -2.4515733133       -0.4865231827
 C          5.5943142012       -1.3156942136       -0.4793182714
 C          1.3379393672        0.6035581610        0.7873397358
 C         -0.0216340553        0.4974372255        0.6814053501
 C         -2.4366018141        1.8629041287       -0.6051197025
 C         -1.6534989047        1.8606966453       -1.7790499702
 C         -1.2202771143        3.0360045223       -2.3472000840
 C         -1.5339222753        4.2581873267       -1.7665299591
 C         -2.2881815949        4.2842494439       -0.6005547398
 C         -2.7353250004        3.1154025330       -0.0281982413
 C         -5.1038451629        1.3571001269        0.7117079836
 C         -6.2152763475        1.1931208690        1.5071921908
 H         -7.1242583656        0.0766578751        3.0985521641
 H         -5.1793971706       -1.4219580758        3.3777210499
 H         -3.1942065322       -1.1458313853        1.9676793813
 H         -1.3841393062       -3.1510815820        0.2523385580
 H         -2.6353367492       -5.1430013767       -0.4238513191
 H         -4.7468205985       -4.9230360112       -1.6857686003
 H         -5.5937362643       -2.6756716917       -2.2674657281
 H         -4.3311668695       -0.6753123346       -1.6269644633
 H         -0.1814075862       -2.1478228893       -1.4379531553
 H          2.2391577360       -1.9635633694       -1.2301981498
 H          5.7071221245        0.4600672681        1.6275912922
 H          6.7535188784        2.6795380554        1.7716782651
 H          5.7954989362        4.5883748439        0.5318662056
 H          3.7846068549        4.2539824636       -0.8635594231
 H          2.7478298991        2.0324518478       -1.0279493389
 H          3.0051416360       -2.4751960911        1.3641275358
 H          4.4047296724       -4.4977053085        1.3314450778
 H          6.5733169051       -4.4881097039        0.1498036189
 H          7.3257881605       -2.4407036136       -1.0074176349
 H          5.9201130910       -0.4234787800       -0.9937278631
 H          1.7734597895        1.3705106670        1.4114588364
 H         -0.6500701227        1.1772510901        1.2363270333
 H         -1.4209054613        0.9170257427       -2.2500516119
 H         -0.6323585762        3.0074928678       -3.2538719806
 H         -1.1889354330        5.1788229195       -2.2126861408
 H         -2.5191755781        5.2307070545       -0.1322409322
 H         -3.2775611018        3.1488562346        0.9052927866
 H         -5.1093587542        2.1020019922       -0.0705244035
 H         -7.0718253623        1.8375483164        1.3679097623
