68
 energy: -98.985480309245 gnorm: 0.000071414659 xtb: 6.7.1 (edcfbbe)
C           -6.41877987438293        0.36428487650676        2.15802636415580
C           -5.37432281446124       -0.51495752127448        2.41201186625960
C           -4.20379469723433       -0.43468379486624        1.69323796537697
C           -4.02808656260782        0.54653905510946        0.69764258276837
C           -2.82446132743168        0.59368747336419       -0.07416403763234
C           -2.04293049842895       -0.64396707802569       -0.23795076904568
C           -2.73871447579155       -1.82838682917209       -0.65864719745351
C           -2.31679186245082       -3.11236466635277       -0.26826966930814
C           -3.02656493593267       -4.23376907659768       -0.63800501198216
C           -4.17489877521835       -4.11948502882361       -1.40842183423865
C           -4.61510106701004       -2.86033789454532       -1.79252186448204
C           -3.91761675525969       -1.73336749276213       -1.42001710433498
C           -0.64348871486397       -0.59830054920597       -0.01173213486181
C            0.25160476872904       -1.49958809578803       -0.63535149241968
C            1.60881839115502       -1.36032674685127       -0.51384321812327
C            2.16014733150827       -0.32121088965407        0.24818014723164
N            3.53894555120012       -0.14826786801679        0.33267052594356
C            4.07616495438388        1.14378083490303        0.37343935647349
C            5.20268271346474        1.41614353745540        1.14978478601076
C            5.73152609430674        2.69158790325411        1.18355833231752
C            5.14567272323040        3.71410701645109        0.45501682254337
C            4.02406137884116        3.44940735720813       -0.31427281706140
C            3.49209345935903        2.17602523757897       -0.36183483165845
C            4.38902955505055       -1.25911148915303        0.33821571869713
C            4.02283455758939       -2.42244419475069        1.01586179480517
C            4.86180748048605       -3.51932791374686        1.01738141337370
C            6.07690376404279       -3.47472694903275        0.35310527586726
C            6.44650413192533       -2.32078782786817       -0.31894470462428
C            5.61170985928507       -1.22076518448764       -0.33262493978545
C            1.28867124786648        0.55997903170987        0.90285732706226
C           -0.06723408841650        0.42943558689210        0.77286680886962
C           -2.34105736876594        1.78746051911751       -0.69860541120704
C           -1.49082301760699        1.71948287961210       -1.82075762753462
C           -0.96458916326802        2.85930152493345       -2.38422027242957
C           -1.25189915144898        4.10771725432899       -1.84865331451478
C           -2.07674806036109        4.19751934352265       -0.73544103393297
C           -2.61561090950516        3.06432407039057       -0.16888051768067
C           -5.10455944623839        1.42065573353662        0.44802069413026
C           -6.27534743270954        1.32500900315680        1.16623601561142
H           -7.33824977977345        0.29510607643246        2.71973412616385
H           -5.48121151149077       -1.26843942919190        3.17922648771340
H           -3.39186313428660       -1.11425346470969        1.90666814801509
H           -1.45143076233649       -3.21220962061762        0.37079717403249
H           -2.68993021097930       -5.20931544311981       -0.31633184501545
H           -4.72643939615248       -5.00148324787829       -1.69774073470553
H           -5.51163622441612       -2.76271185148089       -2.38790565298411
H           -4.26139053605001       -0.75858935115476       -1.73426337342512
H           -0.14347373673285       -2.26686469129452       -1.28395283114702
H            2.26954728303550       -2.03542519495758       -1.03882352477502
H            5.65417519066673        0.62292991144322        1.72762560339417
H            6.60275685290632        2.89013449456002        1.79021622775056
H            5.56022159815117        4.71014678845606        0.48680746298330
H            3.56303067211611        4.23890850011664       -0.88910773349077
H            2.62353446164023        1.97096171999554       -0.97046872244650
H            3.08131629641116       -2.45348063894304        1.54429475025309
H            4.56848017202928       -4.41287569160352        1.54842618996282
H            6.73127722923635       -4.33302044838501        0.35903858185952
H            7.38920848407765       -2.27949792457056       -0.84439358809920
H            5.89655529691036       -0.32633708253765       -0.86711261943869
H            1.69994738515315        1.34679002729633        1.51861930107295
H           -0.71739334914877        1.10915100496795        1.30245342012947
H           -1.27396966342837        0.75490667058558       -2.25581021314546
H           -0.32344291548839        2.78099565889298       -3.25091141974749
H           -0.83258843167069        4.99993422738466       -2.28904733270382
H           -2.29017243700188        5.16440314695619       -0.30201604378453
H           -3.21511619789974        3.14581841998013        0.72594334884312
H           -5.02367721604364        2.14162802111348       -0.35233490744917
H           -7.09246057142642        1.99814548987391        0.94824709477086
