59
 energy: -85.731218536428 gnorm: 0.000029896358 xtb: 6.7.1 (edcfbbe)
C           -2.56592359621586       -0.78881243951229       -2.78287316808876
C           -1.20681552950787       -0.37874389516350       -2.33747977259078
S            0.00000964518652       -0.00096844063113       -3.54468792028250
C            1.20671717561443        0.37706906698684       -2.33745851701140
C            2.56589073352997        0.78700320106810       -2.78275525413915
C            0.68602114523980        0.21136688838232       -1.09398266697091
P            1.28564245334158        0.48630094761515        0.60092750141232
C            2.78219231632180        1.50011462255638        0.27448570918278
C            4.09672403573124        1.05809067921553        0.35427194103507
C            5.13792377123514        1.93656802629538        0.11014743528838
C            4.87956314524481        3.25915046216237       -0.20844141712396
C            3.57086601388059        3.71026021171142       -0.27541258956750
C            2.53011505810794        2.83684239395222       -0.02572679173105
C            2.01540045991548       -1.14090576418317        0.98623491528610
C            1.86726058388761       -2.26250701986807        0.18047932759176
C            2.38930343181121       -3.47920859933415        0.58388408729443
C            3.05567649337575       -3.58767795123861        1.79242530860993
C            3.19394339226328       -2.47526899047250        2.60777130758835
C            2.66876089128393       -1.26078518991217        2.21077966613845
C           -0.68624468601396       -0.21273550315335       -1.09399121259459
P           -1.28589320407300       -0.48729008026395        0.60097680076878
C           -2.78327250676620       -1.49996644453086        0.27477649112390
C           -2.53236444386290       -2.83701279104450       -0.02498597904674
C           -3.57387596259951       -3.70958353432028       -0.27447492536703
C           -4.88217474655023       -3.25728162652777       -0.20776886277705
C           -5.13938228155544       -1.93436454671265        0.11036569315945
C           -4.09741834489850       -1.05674269507127        0.35430239422065
C           -2.01447533874368        1.14044046235104        0.98634941953272
C           -1.86587608050109        2.26187969723701        0.18045258955697
C           -2.38695133009550        3.47896527079941        0.58395095526817
C           -3.05281311215883        3.58797790130480        1.79272558662557
C           -3.19156319039504        2.47571586811212        2.60819103787265
C           -2.66734927745796        1.26084563822121        2.21109837117388
H           -2.71200777196437       -1.86127073097263       -2.64656724420162
H           -2.69947900381972       -0.55340984833069       -3.83652284539483
H           -3.32851004378622       -0.27150568021289       -2.20350541235492
H            2.71186172256118        1.85954411297643       -2.64696878559959
H            3.32836784471297        0.27004441464148       -2.20293332153414
H            2.69971251457029        0.55107030988194       -3.83625282877158
H            4.30824344757570        0.02642435886834        0.59828387943662
H            6.15840607196291        1.58534487216589        0.16797615873639
H            5.69690430130061        3.93920852346053       -0.39883921099433
H            3.36578496920768        4.74376524946694       -0.51575529448885
H            1.50334124211091        3.17980062335433       -0.06353631972093
H            1.34858096125672       -2.18577688837061       -0.76488126229388
H            2.27506601968897       -4.34755069643658       -0.04952797547543
H            3.46274294273120       -4.53915437046250        2.10219088784007
H            3.70610081765946       -2.55905653057827        3.55558890585792
H            2.76119997666208       -0.38877410984299        2.84566285254274
H           -1.50589226652127       -3.18088711130646       -0.06264603668047
H           -3.36969989135335       -4.74335142941474       -0.51445825348257
H           -5.70010967146417       -3.93668018938368       -0.39796981592971
H           -6.15955539058315       -1.58221826606839        0.16802657016400
H           -4.30803341289145       -0.02480748673589        0.59795974955694
H           -1.34754226967145        2.18474444021203       -0.76506587590494
H           -2.27228744732644        4.34719752189258       -0.04953335696028
H           -3.45912448523273        4.53975257110530        2.10256507523805
H           -3.70342652109148        2.55989501318106        3.55613174447681
H           -2.76026477086174        0.38891750091645        2.84602155450699
