59
 energy: -85.642093592054 gnorm: 0.000074088491 xtb: 6.7.1 (edcfbbe)
C           -2.37539536424043       -2.31827160558227       -2.30948587159690
C           -0.99615847940625       -1.91498604522041       -1.93832389909974
S            0.36252791425952       -2.30684124236959       -2.99666745977621
C            1.52547776560583       -1.54320816813673       -1.90841929520821
C            2.97056002012686       -1.53002247536455       -2.24648313978649
C            0.87239533396883       -1.04344318830473       -0.81720630019710
P            1.28618920868023       -0.00381610143296        0.57757740577058
C            1.35689816770652        1.72087492652831        0.03604685158748
C            1.15862813309655        2.73688312833932        0.97887638020195
C            1.05929749207384        4.04904039393863        0.57249512520313
C            1.12968293504938        4.36910903691075       -0.77728157277787
C            1.30819398530803        3.36273943787135       -1.71786344408272
C            1.41372879310902        2.04694507408835       -1.32263933750435
C            3.00478184120992       -0.45050123429838        1.01558022140739
C            3.94925371755469        0.51230806138245        1.36910685810227
C            5.20161986691733        0.11762158336520        1.79802298988201
C            5.51091133232312       -1.22954561725631        1.91194182421277
C            4.55819316110704       -2.19036653656068        1.59828316743754
C            3.30458054412277       -1.80473968081693        1.17317308536298
C           -0.54054158629956       -1.25177586373147       -0.83399106435001
P           -1.26933951058314       -0.38048183652568        0.54690555609250
C           -2.79547189546081       -1.30577415030707        0.94654132868758
C           -2.69422372629257       -2.68915365299419        1.10398237576786
C           -3.79228320312996       -3.42191859045214        1.50178492694853
C           -4.98947382585708       -2.77855031366464        1.78831560048236
C           -5.08068590342754       -1.39930745085333        1.67469961397555
C           -3.98633260079927       -0.65820988500552        1.27304791985360
C           -1.82210119532472        1.25213149321617       -0.00256159072956
C           -1.93348015978199        1.55430749852456       -1.36337467273271
C           -2.20275063126153        2.84613373501248       -1.75999349074084
C           -2.34942310622753        3.85655864744381       -0.81824500891275
C           -2.22661731239533        3.56412667220450        0.53402850594157
C           -1.95268173993536        2.27750955806198        0.94193947347936
H           -2.54750888093316       -2.16028127256733       -3.37388365437335
H           -3.09638787023351       -1.73555394672614       -1.73698994011240
H           -2.54555721770137       -3.37616503459985       -2.09725830542391
H            3.47997923553676       -0.76816506239755       -1.65724852606915
H            3.43314186946468       -2.49556151927349       -2.02997133614579
H            3.11424835802027       -1.32224274748590       -3.30654814340068
H            1.09709699266573        2.47667397521648        2.02737378771155
H            0.91994065361733        4.83118838462459        1.30490448218183
H            1.04304698478280        5.39709762677499       -1.09493620494172
H            1.36151320668007        3.61166972161537       -2.76805327020050
H            1.54499574679568        1.26207206998422       -2.05422801295331
H            3.70555810693379        1.56108884576229        1.27031795204122
H            5.94242773074459        0.86365393651661        2.04768633872273
H            6.48957036950772       -1.53168499879387        2.25390545930216
H            4.79816952484004       -3.23947410825887        1.69432861662004
H            2.54928452612494       -2.54092095580707        0.93042757123955
H           -1.75267473424954       -3.17474610071076        0.88255554995998
H           -3.72060399142741       -4.49576651494241        1.59753985262719
H           -5.84659315393371       -3.35164717943196        2.10906142542775
H           -6.01137199391007       -0.90007746246311        1.90330718607248
H           -4.05439430364770        0.41637454804694        1.17459465733007
H           -1.81158844116978        0.76859502521243       -2.09569722876572
H           -2.29694477640748        3.07399869072643       -2.81210928891011
H           -2.55548597754659        4.86709731567941       -1.13687392296285
H           -2.33991165963336        4.34961834352555        1.26738327250384
H           -1.84719751603143        2.04131075980734        1.99264009593031
