59
 energy: -85.734516686860 gnorm: 0.000043431268 xtb: 6.7.1 (edcfbbe)
C           -2.44020171242933       -1.83889243518135       -2.03708922045497
C           -1.02856916303323       -1.66280873929949       -1.60401855213082
S            0.25791163304873       -2.32012241301776       -2.57604211787385
C            1.49050131147058       -1.72057916961895       -1.48964679659250
C            2.91419125740256       -1.98261462031670       -1.83810959487153
C            0.91669332833353       -1.07364763997585       -0.44033350106104
P            1.53941975136874       -0.22989463131137        1.05172076865888
C            1.35972327068685        1.48789034739206        0.43442807959341
C            0.88127676101834        2.44501874966575        1.32094905807560
C            0.67561562985321        3.74642747863480        0.90073693022954
C            0.94489783430338        4.09847941485009       -0.41046172145478
C            1.42679223404630        3.14961659676092       -1.29779465723516
C            1.63238351650217        1.84810745915763       -0.88057443120122
C            3.35171655020041       -0.47992575071386        0.91942924760636
C            4.27252692093648        0.53097326847536        0.67227594739130
C            5.62828949729447        0.25168100791266        0.68510880560466
C            6.07733887512205       -1.02856036370099        0.96070388105430
C            5.16564244375012       -2.03465432048567        1.24047342797587
C            3.81299282371447       -1.75769492839715        1.23189382441308
C           -0.51684776635668       -1.04171254345123       -0.50690725102816
P           -1.31499551880757       -0.16983327042875        0.87067883938520
C           -2.87208378854704       -1.13069443499393        0.99788164782378
C           -2.72276470288831       -2.48139912764162        1.30675094479634
C           -3.82979436679464       -3.28927306297069        1.47708468507784
C           -5.10200932204956       -2.75219744136344        1.35854629713835
C           -5.25703669776737       -1.40629703295041        1.07370923461734
C           -4.14989283325794       -0.59445781145596        0.89895250158339
C           -1.89653460809537        1.36647015259045        0.06499025044815
C           -1.67513960589467        1.68538699028080       -1.26774601809848
C           -2.08580073951431        2.90954808108450       -1.76495995874044
C           -2.71384577443395        3.82547623069409       -0.93931332571473
C           -2.92633682576421        3.51924734496360        0.39535858443503
C           -2.51112624984988        2.30105916633133        0.89596656885457
H           -2.49222999392014       -1.95043168822921       -3.11842220863006
H           -3.03739992096922       -0.98019540468111       -1.73604718812027
H           -2.87459148197318       -2.72961697283827       -1.57974675752921
H            3.53241667456517       -1.11156913084122       -1.63045459327139
H            3.30928593184040       -2.81726821924494       -1.25754959737404
H            2.99597641967878       -2.23250485988366       -2.89416823878431
H            0.66576501248428        2.15542626975418        2.34061318125065
H            0.29746537806679        4.48485527220959        1.59267323118977
H            0.77648886690221        5.11200455227893       -0.74398969197768
H            1.63765470125088        3.42540223139382       -2.32133754949298
H            2.00137480030533        1.10657693582848       -1.57635399422001
H            3.93086461141522        1.53513925659539        0.46358941239198
H            6.33852781752695        1.04050099281688        0.48144852033987
H            7.13647115376073       -1.24053839689572        0.96852644059407
H            5.51391454882093       -3.03103713912888        1.47262613004091
H            3.09195306486712       -2.53239398359456        1.46104019906045
H           -1.72558636380947       -2.89118480877981        1.40521316415414
H           -3.70377291639252       -4.33763359563642        1.70693037495302
H           -5.97001010873844       -3.38087494545829        1.49258415972626
H           -6.24787092960987       -0.98385546996411        0.98591138939940
H           -4.28268829123470        0.45382032512241        0.67161518222782
H           -1.17533252222757        0.98241508117462       -1.91829584902435
H           -1.91095906140895        3.14968601764333       -2.80391588647062
H           -3.03133316789331        4.78014422071371       -1.33252152518706
H           -3.40801316894322        4.23547517169073        1.04554973826084
H           -2.65462553134845        2.06105885695131        1.94188892736308
