  52
        -79.22082810
 O          7.2556382983       -0.7376189874       -1.2593061267
 C          5.9697223168       -1.2951969157       -1.1277403686
 C          5.0674015979       -0.5328928046       -0.1876765046
 C          5.6062309370        0.1582720742        0.8915335770
 C          4.7746299669        0.8566684557        1.7513073156
 C          3.4099230165        0.8738439847        1.5438916062
 C          2.8460839959        0.1792698427        0.4687026673
 C          1.4039771666        0.1849354669        0.2410818069
 C          0.6960445559       -1.0525362095        0.1552632422
 C          1.3280331473       -2.2788898750        0.3774618302
 C          0.6537331438       -3.4874227547        0.2060869035
 C         -0.6630373266       -3.4852937638       -0.1969590789
 C         -1.3344071301       -2.2749532001       -0.3673074206
 C         -0.7001690135       -1.0503625275       -0.1420669440
 C         -1.4043399780        0.1896549102       -0.2272173903
 C         -2.8450599449        0.1884992669       -0.4615471613
 C         -3.4019515747        0.8931242942       -1.5338360151
 C         -4.7653174244        0.8785088786       -1.7503281375
 C         -5.6024197365        0.1709333528       -0.9038164768
 C         -5.0706266669       -0.5312606202        0.1719539318
 C         -5.9800279660       -1.3062311485        1.0952186445
 O         -7.2625314355       -0.7424401495        1.2350932064
 C         -3.7027968936       -0.5195017866        0.3845529398
 C         -0.7063601753        1.4274303900       -0.0805992380
 C         -1.3748520879        2.6544706706       -0.0805964477
 C         -0.6811323619        3.8627600175       -0.0239163529
 C          0.6945672460        3.8603206719        0.0321570385
 C          1.3833639507        2.6496008872        0.0946147540
 C          0.7103063787        1.4251094576        0.0955536676
 C          3.6977286826       -0.5206765081       -0.3896585009
 H          7.1671710947        0.1763317911       -1.5502380077
 H          5.4843132051       -1.3886157949       -2.1110421972
 H          6.1345371135       -2.3053998124       -0.7369289002
 H          6.6741186409        0.1407659034        1.0510083948
 H          5.1965992764        1.3865317266        2.5928915998
 H          2.7619774556        1.3991214160        2.2302182232
 H          2.3598118846       -2.2950060474        0.6933999006
 H          1.1755455403       -4.4168703875        0.3778708097
 H         -1.1874214625       -4.4131505424       -0.3697985483
 H         -2.3657002787       -2.2888945743       -0.6847617775
 H         -2.7491918125        1.4230399688       -2.2120055151
 H         -5.1814347380        1.4165617877       -2.5896191493
 H         -6.6692671207        0.1541514637       -1.0699629913
 H         -6.1505283600       -2.3071590680        0.6825474009
 H         -5.4970011762       -1.4237298011        2.0774059007
 H         -7.1687007781        0.1615817352        1.5570442186
 H         -3.2878100732       -1.0426043651        1.2350123628
 H         -2.4529195637        2.6716109726       -0.1223071048
 H         -1.2295179816        4.7926419159       -0.0371714265
 H          1.2465438814        4.7882354981        0.0416437455
 H          2.4614005163        2.6628965087        0.1386303612
 H          3.2766938777       -1.0390569429       -1.2398341042
