52
 energy: -79.290366499262 gnorm: 0.000040753411 xtb: 6.7.1 (edcfbbe)
O            7.33977025356925        0.07809477846817       -1.23902840676526
C            6.08488944647643        0.71437556499022       -1.26850018284458
C            5.11429745602253        0.20479157495850       -0.23066653944114
C            5.57914789942271       -0.33419392498876        0.96174731191985
C            4.68567040044509       -0.79463438052958        1.91302834258015
C            3.32410646624813       -0.71866689017382        1.68470382107131
C            2.84333182271408       -0.17569067455792        0.49685162313898
C            1.38867793480096       -0.08686073824320        0.24571151574111
C            0.65015933309746       -1.25292838335926        0.00093537036170
C            1.26547540175665       -2.53190473843511       -0.03971581581487
C            0.54141956120578       -3.65609955742185       -0.29113113806165
C           -0.84449524174745       -3.57024289574555       -0.53163342038941
C           -1.47074090072582       -2.36241837133349       -0.51461844477862
C           -0.75588442441331       -1.16596338024306       -0.24338179226516
C           -1.38798964783431        0.08517820085693       -0.23722883025245
C           -2.84183338636771        0.17466287017906       -0.49314235769942
C           -3.31696554216326        0.71317881904576       -1.68532263210073
C           -4.67739668009710        0.78936548616335       -1.91992355824579
C           -5.57540395258190        0.33369280653882       -0.97057584433474
C           -5.11623362567275       -0.20044821409385        0.22615310183989
C           -6.09158520021884       -0.70511543894473        1.26200880786626
O           -7.34895335742612       -0.07471096108515        1.21908228976541
C           -3.75022476440087       -0.27640495382825        0.45694772001559
C           -0.64959957323494        1.25115696281946        0.00810122665534
C           -1.26498208433635        2.53012288036469        0.04777935670426
C           -0.54108497172966        3.65439985136422        0.29927172506119
C            0.84460482860506        3.56850978925601        0.54105668766507
C            1.47090869110964        2.36069387805606        0.52470476304480
C            0.75634325715030        1.16420387614678        0.25286137308041
C            3.74729871377458        0.28037724235857       -0.45517319016849
H            7.20714624320381       -0.86997650221334       -1.35066498693572
H            6.29557592754335        1.77335981114896       -1.08179651160315
H            5.63140007200673        0.63249223401821       -2.26814951338353
H            6.64352434299383       -0.38521516002771        1.13844482792943
H            5.05394819226811       -1.21261697700561        2.83845710311225
H            2.62372547301915       -1.07345167642961        2.42685142125509
H            2.33035164422547       -2.59617870329840        0.12836586764855
H            1.02417172500093       -4.62207615285100       -0.31781453664286
H           -1.40236170177526       -4.47161739398828       -0.73905569184557
H           -2.52957034558411       -2.29515728679350       -0.71607772878693
H           -2.61296932032626        1.06421623936417       -2.42582641786629
H           -5.04126893774393        1.20365510530166       -2.84874702857339
H           -6.63892376655470        0.38459368547779       -1.15238192039130
H           -6.29637872042150       -1.76659176865146        1.08306756718635
H           -5.64487134287001       -0.61276214227295        2.26380321206753
H           -7.22147443040400        0.87457948499410        1.32621352072933
H           -3.38317410985434       -0.68815134976201        1.38706265801751
H           -2.32975105750437        2.59418902200852       -0.12112781441353
H           -1.02376282618073        4.62043580146643        0.32508855148776
H            1.40233223224499        4.46990667323589        0.74877501129607
H            2.52955145325830        2.29354794138798        0.72717549197908
H            3.37575696063903        0.69562693043493       -1.38194138830791
