52
 energy: -79.290366742587 gnorm: 0.000027867893 xtb: 6.7.1 (edcfbbe)
O            7.33719992321373       -0.08472383764647       -1.28496946580943
C            6.06344815262249        0.48450105119545       -1.46832878100762
C            5.10826401440483        0.23328210962394       -0.32662774875713
C            5.58848403338899        0.01980858675378        0.95869972395931
C            4.70819375722351       -0.20420239381335        2.00287201107587
C            3.34455775078001       -0.21385006748283        1.77477684895278
C            2.84835510151439        0.00508528583670        0.49304526113421
C            1.39103331950645        0.00183607259325        0.24111388080703
C            0.67598490759888       -1.20256038690846        0.29532463715862
C            1.31786359554605       -2.44067999223543        0.56191207371301
C            0.61634855547990       -3.60591654871908        0.59907682884194
C           -0.77222635837505       -3.60787986703333        0.35845716735698
C           -1.42375229749943       -2.44457755375949        0.08722357519025
C           -0.73282279748224       -1.20465014758539        0.05160956158858
C           -1.39110542577385       -0.00198628789747       -0.24018340661065
C           -2.84837211888319       -0.00525065937876       -0.49245401023129
C           -3.34410388159190        0.21374689539635       -1.77435623072486
C           -4.70765577536874        0.20420621500675       -2.00296910671901
C           -5.58832174326290       -0.01982515152812       -0.95912896737642
C           -5.10857654208152       -0.23340634388115        0.32637062313118
C           -6.06440375207224       -0.48451181649987        1.46754431130885
O           -7.33701883830423        0.08746970743300        1.28467291963439
C           -3.73946744986528       -0.22483795476969        0.55108394716161
C           -0.67603096568368        1.20239414606233       -0.29452345895837
C           -1.31781340074108        2.44046425469402       -0.56157519022414
C           -0.61618565290402        3.60561468524540       -0.59932679657776
C            0.77237354168572        3.60758384506346       -0.35861932048583
C            1.42377136943998        2.44436290552239       -0.08673492418216
C            0.73276770425097        1.20448757472634       -0.05075795008957
C            3.73906418507220        0.22466002173639       -0.55081458115672
H            7.23391470110171       -1.03301497953151       -1.14717322665650
H            6.24130274504361        1.56145161372173       -1.56442016522244
H            5.61274371904114        0.13268526723124       -2.40899279517899
H            6.65426185851970        0.03563667501585        1.13364066073916
H            5.08851064984829       -0.36959310611978        3.00025717602286
H            2.65435041977051       -0.38466640504480        2.58818097185371
H            2.38462619537275       -2.44131277824779        0.73043136202650
H            1.11905584151505       -4.53981605038701        0.80399213782656
H           -1.31200738386473       -4.54318337213974        0.38232663954839
H           -2.48480248641782       -2.44868577781286       -0.11378970575673
H           -2.65357449691983        0.38455975262016       -2.58748673834239
H           -5.08758346760558        0.36966765610217       -3.00048836240119
H           -6.65404895094464       -0.03546672034164       -1.13439187215366
H           -6.24441007850382       -1.56125001600084        1.56197884285846
H           -5.61327664781405       -0.13495021231705        2.40883782100640
H           -7.23178857198683        1.03565677625980        1.14760692485268
H           -3.35640194819720       -0.38772200447483        1.54913318669520
H           -2.38456720322947        2.44112245029949       -0.73014442768215
H           -1.11879821342809        4.53944775940189       -0.80476352629647
H            1.31222314085090        4.54283449207641       -0.38284967929104
H            2.48479109842950        2.44848913591753        0.11443623615830
H            3.35562616757970        0.38746349602879       -1.54873089270825
