52
 energy: -79.226313707338 gnorm: 0.000029619787 xtb: 6.7.1 (edcfbbe)
O            7.34253737422204        0.24582434710170       -1.20466427638045
C            6.09004939947162        0.88559143650413       -1.15648283041413
C            5.11736186592813        0.25631740115395       -0.18821078119468
C            5.58250209051797       -0.41680649247057        0.93497447593596
C            4.68587215522851       -0.99114678166821        1.82025952384609
C            3.32641701849566       -0.89983314989317        1.59505209956312
C            2.83853437511430       -0.21940577774471        0.47683121778979
C            1.39869708720783       -0.10867209362206        0.23514755359411
C            0.61210082977227       -1.29249857642356        0.07550098121400
C            1.19457678629083       -2.56117443975775        0.06798917334636
C            0.43155093635562       -3.71346687004957       -0.12374987302602
C           -0.92122982541435       -3.60830995712921       -0.35044490355573
C           -1.52305192575250       -2.35002305763506       -0.38738603485951
C           -0.79068143059872       -1.18358429479144       -0.15962738238960
C           -1.39879991781661        0.10898422834710       -0.23370245062555
C           -2.83852468270516        0.21980089108856       -0.47599153175088
C           -3.32575961349714        0.90033624192360       -1.59443592088795
C           -4.68507478803745        0.99168128750979       -1.82043546384184
C           -5.58222522502627        0.41727348327121       -0.93571995912961
C           -5.11774611734168       -0.25591853587943        0.18769647079609
C           -6.09101535178701       -0.88527321161770        1.15533378696108
O           -7.34360721400273       -0.24564988769967        1.20266338162292
C           -3.75329369055277       -0.35250336857957        0.40824318769651
C           -0.61222104560375        1.29280442286311       -0.07390729553994
C           -1.19470290516531        2.56147749260699       -0.06632631559841
C           -0.43166611695220        3.71376546900015        0.12542387242586
C            0.92112452328248        3.60860456671315        0.35206930196134
C            1.52294729609519        2.35031528036965        0.38896527789361
C            0.79055839430026        1.18388801301337        0.16119797733759
C            3.75278393569628        0.35287307979218       -0.40795764738554
H            7.20682424359283       -0.68067259201060       -1.43281129071341
H            6.30480118710426        1.91288774098183       -0.84143160222645
H            5.63672555264672        0.92829476357687       -2.15859470216289
H            6.64627044706084       -0.48229216794136        1.10940653097127
H            5.05214624245683       -1.50917750438113        2.69457465117773
H            2.62749664686117       -1.33162470803820        2.29650809168833
H            2.26133977632345       -2.65653616388717        0.20028517236725
H            0.91386136551859       -4.67940469476954       -0.10674892406576
H           -1.52246080601466       -4.48989688014881       -0.51526157938076
H           -2.57641192650586       -2.28098338759594       -0.61145512718548
H           -2.62642050518325        1.33217528740292       -2.29544495219755
H           -5.05083213947274        1.50982645946316       -2.69489970128432
H           -6.64589087341713        0.48279603061008       -1.11076125245817
H           -6.30544197278120       -1.91260044137424        0.84015928153723
H           -5.63835972437583       -0.92790802838371        2.15775052489755
H           -7.20815520422184        0.68086905434201        1.43087805863507
H           -3.38713503020246       -0.85998377537429        1.29004632825919
H           -2.26146770636360        2.65684371678531       -0.19860455461180
H           -0.91397430950547        4.67970413657908        0.10845655647674
H            1.52236186528215        4.49018884091694        0.51687338807824
H            2.57632070581599        2.28125912173292        0.61296872638305
H            3.38609385422261        0.86029298037129       -1.28957466357358
