76
 energy: -117.305581520252 gnorm: 0.000049839488 xtb: 6.7.1 (edcfbbe)
O            9.03573955228834        0.25779102241587       -0.65095132682611
C            8.02220576813841        0.85680004893503       -0.34876128912930
C            8.03526214039736        2.31616048339084       -0.06917962920374
C            9.16747168350168        2.87499429169241        0.51944820632251
C            9.22368241685134        4.23180280261212        0.77465549343765
C            8.15930988525824        5.04665393153456        0.42316490466183
C            7.04093172694878        4.50196529388200       -0.18747147261851
C            6.97330210545014        3.14235131513965       -0.43058461218398
C            6.71419129385247        0.16581420896326       -0.24447318668582
C            5.72930469114947        0.57038937221621        0.65586370905713
C            4.53951528653871       -0.12166057531182        0.74515891513003
C            4.30213556676153       -1.22390997488010       -0.07641509249432
N            3.08877469431124       -1.90850414025364        0.00181300270005
C            2.93351482008028       -3.28106003340296        0.08991927835480
C            3.89510987349229       -4.27623708195159        0.18541083160788
C            3.46138877293616       -5.58378052885154        0.29847052597467
C            2.10573294911140       -5.90132711943334        0.32735792415451
C            1.14440141100018       -4.91247276044508        0.26220917164771
C            1.55623839387567       -3.59170899235843        0.14832762673697
C            0.85057724435365       -2.34132675508812        0.08370617892286
C           -0.49552404180345       -2.01250633138938        0.07674466700626
C           -0.86821582767435       -0.67708081241710       -0.01510439708358
C           -2.28677688649387       -0.29790071343052       -0.01429642018878
C           -2.72898331582326        0.82483388640476        0.68382254115501
C           -4.06119538586331        1.17918952976537        0.69370873431038
C           -4.99908292906849        0.42536267359562       -0.01233382967962
N           -6.34965316998741        0.78601839940236       -0.01245490825511
C           -6.71440284210350        2.13681976519572       -0.01889903488212
C           -7.82521671410460        2.57271800456494        0.70339886548453
C           -8.18447514054743        3.90624903810242        0.69064272384529
C           -7.44238027098126        4.82673527838396       -0.03119339882978
C           -6.33576231225277        4.39992736754054       -0.74689427162596
C           -5.97330391805738        3.06718630433936       -0.74748677792953
C           -7.33832589942362       -0.20452241318340       -0.00707318165096
C           -8.51512175871268       -0.03305610192678       -0.73584289369883
C           -9.48978585014808       -1.01158374894903       -0.72430047072118
C           -9.30698468638480       -2.17639535571894        0.00290953412368
C           -8.13819114743256       -2.35359756082587        0.72507571156592
C           -7.16114298101523       -1.37738724705120        0.72669653417844
C           -4.56209598769815       -0.69579305467700       -0.71847509428173
C           -3.23037766294167       -1.05173882828709       -0.71059017737087
C            0.12171353251238        0.30939041514396       -0.12212797846599
C            1.46708146908723        0.00306223517588       -0.12429871964449
C            1.83288734375737       -1.32930117038480        0.00136522473902
C            5.28898014535492       -1.63722253198631       -0.97165363359863
C            6.48540168608322       -0.95689932091894       -1.03971458089238
H            9.99125395541627        2.22592053983441        0.77677928910874
H           10.09933810726294        4.65718483672392        1.24204700477681
H            8.20404317812167        6.10817308887602        0.61737844892589
H            6.21881974479917        5.14042707738157       -0.47606766347487
H            6.10836194203917        2.72296449821148       -0.92392589060737
H            5.91034174222264        1.40932123883292        1.31167300545461
H            3.79196825656914        0.17210388682999        1.46657952091451
H            4.94879171926800       -4.04225513869646        0.18677253652583
H            4.19141615562790       -6.37627538832043        0.37053059996665
H            1.80747429534797       -6.93547608400218        0.41361892169770
H            0.09341055781450       -5.15515386061381        0.30501907547813
H           -1.24393182947083       -2.78589991121305        0.15941941687193
H           -2.02204158098627        1.41064136468563        1.25300792101317
H           -4.38834700408285        2.04207498539520        1.25542957984293
H           -8.40002220593158        1.85880512054505        1.27514136928957
H           -9.04590689533522        4.23026168109514        1.25610595181023
H           -7.72446516565804        5.86864787699042       -0.03608733369639
H           -5.75436420560036        5.10936078269402       -1.31750662653119
H           -5.11618942600699        2.73547198532111       -1.31517917001503
H           -8.65597340136965        0.87004519925020       -1.31165348591011
H          -10.39541837140764       -0.86682023958555       -1.29496336218357
H          -10.06970787974453       -2.94019780519948        0.00681086043393
H           -7.98922425629572       -3.25600635624931        1.29980777884969
H           -6.25507299323466       -1.51353551390376        1.29892093538169
H           -5.27625118222289       -1.28114646463178       -1.27919566751322
H           -2.90934879052636       -1.91147655385679       -1.28027829938668
H           -0.18113794542003        1.34011736738327       -0.23250953954645
H            2.20717325311752        0.78096575277430       -0.23711374300389
H            5.10155157409710       -2.48046288865518       -1.61891705435550
H            7.25903208959757       -1.26979854429408       -1.72491107673045
