76
 energy: -117.223310237814 gnorm: 0.000063466267 xtb: 6.7.1 (edcfbbe)
O            8.87920486470629        0.37194596001690       -1.19337734071526
C            7.90983626904907        0.94998391914227       -0.61826578542962
C            8.09628580151347        2.31423903321354       -0.10898604311796
C            9.37103178210081        2.70861678329940        0.31497593066688
C            9.58624161271236        3.99069696222185        0.77415184182007
C            8.54856066516372        4.91085922675378        0.79972553600953
C            7.29340201182888        4.53952560687335        0.34035874036552
C            7.06404133146131        3.25789542638059       -0.11782513383681
C            6.65286586051546        0.27592749525745       -0.44591174472010
C            5.68136322353974        0.64921915998956        0.50851723606725
C            4.50779439883679       -0.04971798671237        0.62563622791191
C            4.25722803422202       -1.16658737157603       -0.18206457556270
N            3.04752972182434       -1.86308503036690       -0.06454319479856
C            2.91377421541364       -3.22822364795381        0.09403651762973
C            3.89528413441305       -4.20190179706405        0.21576019115622
C            3.48577482615338       -5.51145827675861        0.38579754326162
C            2.13575167385567       -5.84943384879114        0.44297459666109
C            1.15368180525342       -4.88051269131782        0.34773603691306
C            1.53998729039254       -3.55945024061518        0.17835596322469
C            0.81806762007069       -2.32125797753735        0.06607476380557
C           -0.52593454388756       -2.00097522291343        0.06713884918449
C           -0.91135235053631       -0.66753375219077       -0.07150885309353
C           -2.32516947324652       -0.30019412095304       -0.05634491325524
C           -2.75482361830302        0.89158924709169        0.53532561293123
C           -4.08608712626890        1.23904542984142        0.55777909082625
C           -5.04668195893220        0.40784438186501       -0.02581298944361
N           -6.39405725380622        0.75941288793700       -0.01191202833372
C           -6.77211742313425        2.10465977428667       -0.10233481479377
C           -7.85613502740607        2.58266064614174        0.63408142606524
C           -8.22903169048030        3.90905708923265        0.53845343794215
C           -7.52866613824500        4.77731878282166       -0.28349077543081
C           -6.45049113019237        4.30717102259622       -1.01591717181270
C           -6.07293526783763        2.98130011369811       -0.93228263590341
C           -7.37957837049704       -0.22966016481225        0.09254530226216
C           -8.57308203458699       -0.11287614741616       -0.62008255416443
C           -9.54503293143561       -1.08792581218237       -0.51022628582344
C           -9.34284897894038       -2.19179796991993        0.30253766523278
C           -8.15834986870341       -2.31261172089206        1.01125882020324
C           -7.18230189946758       -1.34040089452604        0.91323310368801
C           -4.62550311986167       -0.78348890346233       -0.62389180231775
C           -3.29347351439598       -1.12878022085116       -0.63138372332416
C            0.07414622866733        0.32292610179978       -0.23583185612823
C            1.41742993144724        0.02446233077252       -0.25225823232340
C            1.79659429231404       -1.30349898976979       -0.08001646645935
C            5.23873798468494       -1.58569643125036       -1.09092549785466
C            6.41314915462420       -0.89456083955704       -1.20805185920298
H           10.17377926455939        1.98766817982987        0.28787982307506
H           10.57129790329028        4.27778262377721        1.11341578232177
H            8.71937773198995        5.91509715117235        1.15842659759870
H            6.48829775896326        5.26086242187785        0.32733432425934
H            6.09562111323321        2.99584876271287       -0.51768181250330
H            5.87836158030341        1.46864927839449        1.18253297090275
H            3.78051327910441        0.23151875058856        1.37420529143555
H            4.94279752259563       -3.94477493087209        0.19156053228950
H            4.22914907763351       -6.28861846862993        0.48115128303123
H            1.85576787671817       -6.88394112386597        0.57433902987147
H            0.10818332382920       -5.14281219697486        0.40900986102796
H           -1.26739428093517       -2.77383312734868        0.20182792486676
H           -2.03497661780645        1.53544148565380        1.01772829126891
H           -4.39944912776802        2.15189008351904        1.04278810991521
H           -8.39548294815072        1.90913112343035        1.28378801819916
H           -9.06731164322275        4.26882613982462        1.11618204320873
H           -7.82165777296315        5.81356371759991       -0.35335215531208
H           -5.90412516243714        4.97578800631606       -1.66426866892390
H           -5.24107122556243        2.61245074344689       -1.51412172449532
H           -8.72674472916192        0.74160612762347       -1.26263062432866
H          -10.46328271674015       -0.98894809305505       -1.06962499349348
H          -10.10382367066721       -2.95263833993610        0.38366766790981
H           -7.99628070388448       -3.16615409908157        1.65248998644568
H           -6.26511021404941       -1.42824733704493        1.47683362381556
H           -5.35407209400998       -1.42515909520151       -1.09737609613999
H           -2.98893295355048       -2.03901585175798       -1.12560743604643
H           -0.23706328218079        1.34533837629136       -0.38839959437154
H            2.15560444318515        0.79581689930430       -0.40903991473879
H            5.04416546876974       -2.44171913459706       -1.72076469812953
H            7.17322449626988       -1.20281128791813       -1.90941617924531
