76
 energy: -117.223450387711 gnorm: 0.000098293596 xtb: 6.7.1 (edcfbbe)
O            7.44546476498453        3.15241609384354       -1.20020551037940
C            7.53510467612568        2.05412131528582       -0.57563842883659
C            8.82031425890908        1.68128102170246        0.02838024417405
C            9.25071471607532        0.35237401388201        0.09619507288294
C           10.48177037667417        0.05017467427327        0.64241319111680
C           11.31011561562652        1.05712722468848        1.11592981067702
C           10.90520766227938        2.38000972231420        1.01573457635695
C            9.67969578364350        2.69517341944419        0.46814242046904
C            6.39178269475157        1.19513480266084       -0.43789021732931
C            6.27003123946782        0.19434508459013        0.55105585987512
C            5.14124785913048       -0.57954753015544        0.63195010670161
C            4.07155122125347       -0.37698806470124       -0.24967597454781
N            2.92650085592038       -1.17939159661988       -0.16683360516433
C            2.91065959340977       -2.56043973665309       -0.13984785486076
C            3.96846563284641       -3.45599959546266       -0.20683834308339
C            3.67272441605554       -4.80630758741625       -0.18064426180576
C            2.35885743404680       -5.26112639427632       -0.09775571481317
C            1.29920862605834       -4.37393173227246       -0.05478790218250
C            1.57120053911999       -3.01423805279436       -0.08122796022675
C            0.74584920778718       -1.83725569144284       -0.07250982111011
C           -0.61966578862995       -1.63506990618122       -0.02078383586146
C           -1.11943034144622       -0.33233899116494       -0.01981923200623
C           -2.55983120453576       -0.09316807410446        0.01292653707346
C           -3.12896908701325        0.98392812267199       -0.67404351832759
C           -4.48675166653626        1.20633297441139       -0.65650485517587
C           -5.33576754859901        0.35902422994057        0.06143593680549
N           -6.71044653709949        0.58073995109253        0.08293956455212
C           -7.59745529052773       -0.50157769742839        0.12407955441691
C           -7.32332136601209       -1.66738932937970       -0.59155556336733
C           -8.20251400549628       -2.73155671068425       -0.54732806399234
C           -9.36581988523505       -2.65011684048547        0.20101196011043
C           -9.64427553455828       -1.49262431395208        0.91001636880924
C           -8.76897004160124       -0.42480280758820        0.87754344944858
C           -7.21336290452726        1.88733983132227        0.06190271572381
C           -8.36931427733640        2.18621340856572       -0.65945736668655
C           -8.86555394876226        3.47504569731750       -0.67170192937142
C           -8.21884516264526        4.48259771693159        0.02588462563291
C           -7.06905682415981        4.19073794849178        0.74194637026675
C           -6.56760498516814        2.90409634140913        0.76571911025646
C           -4.77519955358240       -0.71637222361542        0.75690149877603
C           -3.41728158304924       -0.93621717040972        0.72701438800391
C           -0.22129965240161        0.75079959983694       -0.04355570064730
C            1.14248255438841        0.57225792599159       -0.08645994812309
C            1.63283722891124       -0.73004592048151       -0.12514971289308
C            4.15356804386038        0.65331420767116       -1.19697688285448
C            5.27521132645294        1.43141275031330       -1.27804344247323
H            8.63632452800916       -0.43621841767914       -0.31250331211893
H           10.80470724906344       -0.98045705363800        0.68796315467980
H           12.27096919523095        0.81225121666820        1.54386152109533
H           11.55268065104366        3.17120849444100        1.36598070090151
H            9.35860933005101        3.72208697568440        0.38258061311616
H            7.05572959223881        0.06075175482328        1.27862996762048
H            5.05029335404714       -1.32756791285857        1.40675370433377
H            4.98745689608242       -3.11064859111029       -0.28755469045106
H            4.47782520344700       -5.52411480166748       -0.22940599712356
H            2.16848773311544       -6.32375230913060       -0.07676946455120
H            0.28063820490583       -4.72865649361096       -0.00711323732509
H           -1.29173405594114       -2.47965708794086       -0.01041379345561
H           -2.49797548514307        1.63326921491431       -1.26180360023953
H           -4.90802597993790        2.02968753744003       -1.21448213626271
H           -6.42384467468388       -1.72629718276472       -1.18658840166191
H           -7.98186951907573       -3.62732640028767       -1.10848709650189
H          -10.05136937746131       -3.48299495861077        0.23084472616843
H          -10.54621478283931       -1.42319903862953        1.49959583147148
H           -8.98133066394751        0.47273464336787        1.43962014628329
H           -8.86757809938811        1.40379264065513       -1.21281587772621
H           -9.75896193943923        3.69560838544711       -1.23658447796919
H           -8.60872495206260        5.48873836528173        0.01198701237180
H           -6.56318466677316        4.96890364199555        1.29370286027781
H           -5.67918952219104        2.67440616170163        1.33540656312178
H           -5.41675319293409       -1.36601841203330        1.33412837142164
H           -3.00530952218998       -1.75478739907567        1.29768642995259
H           -0.61546236497274        1.75439411557225        0.00827325615679
H            1.81318616023951        1.41744654767274       -0.07360952690097
H            3.33318089384560        0.80459279053161       -1.88377634311807
H            5.35331539899768        2.22253383902938       -2.00792174133415
