57
 energy: -95.467787045681 gnorm: 0.000060061671 xtb: 6.7.1 (edcfbbe)
O            4.44500366606362        1.51601535296690       -1.93616408340797
C            4.86291094400123        0.86618683054156       -0.99414311934069
C            6.25046189421739        0.33939290553283       -0.98586895644582
C            6.88679091052105        0.12562405398738       -2.21088349279320
C            8.16950004998292       -0.38994194675187       -2.25528864369070
C            8.84186275531278       -0.69529868756556       -1.08103883165595
C            8.22826028196111       -0.47133171275141        0.14306322124612
C            6.94548554716651        0.03536265769931        0.18017627614387
S            6.18207183569659        0.42618664458731        1.74755961195092
O            6.62348775768094       -0.50045739136800        2.76389042909417
O            6.41358754812817        1.83103181829742        2.01436388204300
C            4.44725694550993        0.20195790406540        1.41142968329186
C            3.57886713423694       -0.15796207792018        2.42265149411780
C            2.22033916515749       -0.23430395847245        2.17194565677989
C            1.70930740124811        0.06853041854265        0.90594073759634
C            0.26765775371219        0.02179215381830        0.64379247911848
C           -0.54743139377300       -0.93637104163383        1.24963519786615
C           -1.90421154843832       -0.97067809696614        1.01248016290483
C           -2.50266575345630       -0.03695701091579        0.16118847453367
N           -3.87372649257453       -0.05600268390154       -0.06972462361603
C           -4.56914848967648        1.14172153310320       -0.30144311356995
C           -4.26409364438033        2.29028861650471        0.42804020590795
C           -4.95175766951342        3.46577075434128        0.19374959092294
C           -5.95722790648188        3.51247072381731       -0.75870408566738
C           -6.26956776236555        2.37124668826188       -1.47978392464837
C           -5.58102920004658        1.19346411589580       -1.25899195702873
C           -4.58248619087768       -1.26737799997699       -0.07234765039513
C           -5.85697628485829       -1.33650440641062        0.48901896011117
C           -6.56041625835522       -2.52588864445383        0.47363547186156
C           -6.00515582204796       -3.66197599171180       -0.09282425543289
C           -4.73794894482374       -3.59865596864454       -0.64987772424264
C           -4.03001016719960       -2.41184383771630       -0.64644047506673
C           -1.68886236536693        0.92146580524961       -0.45060702740525
C           -0.33214871859292        0.94554458385617       -0.21465276934482
C            2.60445467085708        0.42968547553096       -0.10072900639158
C            3.97543193472295        0.49685122100807        0.13518619009310
H            6.34981607726464        0.36847337493128       -3.11575510813064
H            8.64773698147269       -0.55251953692322       -3.20892840808062
H            9.84173564160160       -1.09926382187825       -1.11506367082109
H            8.72309142238587       -0.68619943486127        1.07744469684300
H            3.98695707918080       -0.37145704477174        3.39845272256584
H            1.54745806461934       -0.50226663850930        2.97144615476079
H           -0.11064682455106       -1.67669129151838        1.90248939743491
H           -2.51603650231262       -1.71918612633100        1.49369893418326
H           -3.48783196864561        2.25348581463371        1.17849922297082
H           -4.70618706915824        4.34884613819236        0.76559423189658
H           -6.49421720171567        4.43199731335121       -0.93697401389777
H           -7.04995219859051        2.39940504345547       -2.22626335641283
H           -5.82076044583735        0.30673021160929       -1.82764041556811
H           -6.28931831544019       -0.45331096126245        0.93636973943362
H           -7.54635053477253       -2.56684651483364        0.91334024970219
H           -6.55664911431147       -4.59012172783727       -0.10084373413036
H           -4.30037629285548       -4.47801212572297       -1.09976166116615
H           -3.04715512572538       -2.36232889264451       -1.09199178836622
H           -2.13150941925856        1.64641692783669       -1.11735408167116
H            0.26993629027422        1.70697495909761       -0.68690147729501
H            2.25238387302099        0.64683153354339       -1.09809161968031
