62
 energy: -201.653750260028 gnorm: 0.000025048931 xtb: 6.7.1 (edcfbbe)
F           -1.13071039918283        1.96091758323943       -3.08807740326776
C           -0.60809200307130        1.34685972775209       -2.02016039938305
C            0.69008424313231        1.46231688032905       -1.69108077532967
F            1.60161666774099        2.18849275503687       -2.31933122105342
C            1.05326463389812        0.86652343869769       -0.33544775824821
C            2.43361937366169        0.21509928987155       -0.35408996561629
C            3.28684343779963        0.15184070672875        0.75014778511252
F            2.94835535712572        0.69494304285520        1.91300433999547
C            4.54261721455187       -0.44986008319255        0.68617133965893
F            5.30861152786317       -0.47298324642350        1.77360090565805
C            4.99450173335361       -1.01660229770164       -0.49986535239167
F            6.18887294805760       -1.59231602973118       -0.56657757868990
C            4.16614642315176       -0.96918638145339       -1.61600264376668
F            4.55211978404775       -1.51553755227185       -2.76812000230328
C            2.91700451005410       -0.36366180032543       -1.53088028584043
F            2.16487458470117       -0.37528731716477       -2.63817901757083
C            1.02065034610656        2.19672034586063        0.43480837489599
C            2.13694807525783        3.03909468089921        0.45816095251827
F            3.29485855052741        2.67670410177503       -0.10145881359396
C            2.10662208942895        4.30295246059095        1.04403735212470
F            3.21418269837013        5.04052831581602        1.05257285694281
C            0.93181948448236        4.79512522700635        1.59889887716903
F            0.89550098277569        5.99885295305142        2.15788466981609
C           -0.21038821913492        4.00284091817237        1.53913698574579
F           -1.36244831798917        4.44015062551431        2.04091924052924
C           -0.15668374245205        2.74473903725152        0.95150616599225
F           -1.29279088460094        2.04081021790165        0.93143148786840
C           -0.12035391026197       -0.20506424250414       -0.08483389937220
C            0.37827328569289       -1.55635437259683       -0.63227884871713
C            0.05200998319915       -2.02492135273583       -1.90355557168214
F           -0.67129298619374       -1.26951796982824       -2.72916346505343
C            0.45747752750827       -3.27237016877655       -2.37268764517830
F            0.10983117948682       -3.65970051208688       -3.59449665269787
C            1.22524558573622       -4.10450790169580       -1.56445955939954
F            1.61939290878670       -5.29618493442650       -1.99557345495062
C            1.58056801819591       -3.65920709761638       -0.29462192167214
F            2.33456716237717       -4.41751040736661        0.49988926880058
C            1.15904916346263       -2.41077630999503        0.15103025196190
F            1.54732064402870       -2.03920472067854        1.37766917583599
C           -0.59699413514688       -0.51597620206351        1.34604373919968
C           -0.22527090096512        0.04960667551150        2.56671084742125
F            0.68724389661740        1.01240873891792        2.67737682648185
C           -0.77875958307528       -0.34200708477594        3.78828753175773
F           -0.36542910276993        0.27472865983012        4.89480858062503
C           -1.73158492451807       -1.34564254706508        3.86091710174038
F           -2.25990827625026       -1.71558856261121        5.02254736400151
C           -2.10574115875823       -1.95688814300913        2.67047849374184
F           -3.00203485475890       -2.94360130758614        2.66412345956837
C           -1.54048178976981       -1.54717533808674        1.46963314961061
F           -1.93456221499367       -2.22372595442713        0.38778576700331
B           -1.31781781637890        0.36497072916365       -1.08000239051028
C           -2.87702682370841        0.17020226392846       -1.16884899066293
C           -3.68347795207492        1.30370829574004       -0.99758331739862
F           -3.11601101716521        2.48224570263158       -0.72793701375224
C           -5.06960902720328        1.27322771365847       -1.09812770638221
F           -5.77983811971462        2.38509908286077       -0.89753686293081
C           -5.71219543434390        0.08329581663964       -1.42604372287890
F           -7.03796681251186        0.03632089561027       -1.53116688520076
C           -4.94215822429693       -1.04884349410239       -1.66636068180386
F           -5.52933876403910       -2.19281420628716       -2.02316249336461
C           -3.55579444830402       -0.99372053693647       -1.54258896713222
F           -2.88533717756827       -2.10458780737984       -1.84927862397581
