62
 energy: -201.658426578312 gnorm: 0.000065630268 xtb: 6.7.1 (edcfbbe)
F           -1.18533837559679        0.36161141387866       -3.67947258445554
C           -0.65507793380695        0.27407913703246       -2.45508691465478
C            0.65552974599340        0.48628693969408       -2.23869205990057
F            1.56227823679340        0.80855865351914       -3.15078985111124
C            1.04865979136428        0.59916809548516       -0.76960632381026
C            2.42157592692371       -0.00088237845688       -0.48719551346704
C            3.26061746975819        0.44416394413852        0.53754788405984
F            2.89218414660647        1.43979328118734        1.33568393387843
C            4.51957769609638       -0.10890635984136        0.76040104823660
F            5.27504261732548        0.36439509732824        1.74788527024678
C            4.98472989490731       -1.14450829632591       -0.04253366394630
F            6.18341990994530       -1.67695014649021        0.16332003146759
C            4.16403460718392       -1.61918159705537       -1.06010758887370
F            4.56172450106219       -2.62944032977365       -1.83242207773081
C            2.91042375817780       -1.05218757890965       -1.26613687226301
F            2.15689522423348       -1.58200712820967       -2.23720189551639
C            1.05498129660042        2.13576268899047       -0.71389277687341
C            2.19782454798422        2.87619156464473       -1.03444332625280
F            3.35806035031011        2.28432809797338       -1.33219806668950
C            2.19396827075440        4.26893850940266       -1.09118796418860
F            3.32637626196490        4.90739852666056       -1.37434058580308
C            1.02181154331637        4.98282696993807       -0.87603271426935
F            1.01170108593262        6.30905744435556       -0.93044391932740
C           -0.14795448557661        4.27005813358189       -0.63270448459994
F           -1.30543022644553        4.90547990545332       -0.46720368772418
C           -0.11830851155264        2.88209392806693       -0.57639451692912
F           -1.28741318036022        2.26375854240514       -0.37814894112069
C           -0.13706271566385       -0.20356514551916       -0.03903605928686
C            0.33275487442479       -1.67112802299512        0.04541039367662
C           -0.08659692014612       -2.66678116935677       -0.83369594271978
F           -0.94474254360692       -2.38035226587847       -1.80758055414914
C            0.33460384681333       -3.99158167660212       -0.72945530038344
F           -0.10436596875252       -4.88936709032140       -1.60513245009916
C            1.20123307283478       -4.37129364859207        0.28961602978675
F            1.61492435089063       -5.62747246463493        0.39951049578027
C            1.61865841711295       -3.40536252717136        1.20024353583427
F            2.44575225146534       -3.72624467702232        2.19446217457554
C            1.18114936400661       -2.09103128735284        1.07464097636372
F            1.61385361169640       -1.22045971787980        1.99638875566914
C           -0.57361711356234        0.11969726511762        1.39298247684408
C           -0.22470872089066        1.18256554693556        2.22128196449379
F            0.60332625282691        2.15255227346731        1.83726858528432
C           -0.72208088559770        1.32282065013606        3.51927276075968
F           -0.33388974791510        2.37458498204194        4.23869038351717
C           -1.59997162910618        0.39443315773525        4.05523731722102
F           -2.07085531591256        0.52424610794232        5.29129952426685
C           -1.97966544925815       -0.67670412441483        3.25344706378633
F           -2.83572864569019       -1.59356503105531        3.70582296614166
C           -1.47550624946455       -0.79288989721551        1.96663926543714
F           -1.92557107626999       -1.83634706282981        1.25064635514384
B           -1.36718568365880       -0.04805862292047       -1.13006661522581
C           -2.92294392084461       -0.18796488590463       -0.98334968964838
C           -3.70040310568439        0.39621872873186        0.02377197294581
F           -3.13305026658565        1.14784504069497        0.97485367563544
C           -5.08375125014512        0.26895532100033        0.08708210678414
F           -5.75665219550066        0.85651118887877        1.07903347715332
C           -5.76137574228778       -0.46945891476536       -0.87752588949809
F           -7.08250376106847       -0.60600441896575       -0.82176069968525
C           -5.02926660282470       -1.05337439353298       -1.90603476212795
F           -5.65363783913924       -1.75608272239291       -2.85213033035686
C           -3.64681044751132       -0.89642927674670       -1.95592059712132
F           -3.01566377936403       -1.47271153084352       -2.97400513638797
