62
 energy: -201.574011611874 gnorm: 0.000035011097 xtb: 6.7.1 (edcfbbe)
F           -1.21028960103822        0.64884695545286       -3.58924811830599
C           -0.72823199275947        0.45095865655275       -2.37590995336289
C            0.65742380261798        0.85208877155721       -2.12189412031263
F            1.53411205856504        0.76084173305811       -3.14054440433411
C            1.02453020408719        0.51483005954115       -0.67944417654361
C            2.41097649799722        0.00239980276367       -0.42664571802433
C            3.28287960988425        0.54837284737828        0.51795329923326
F            2.91355446697296        1.58678819632326        1.26024233062600
C            4.57173587970121        0.05320133585021        0.70194548054896
F            5.36284094282212        0.60728152775946        1.61677657331226
C            5.03283698300220       -1.00881735024279       -0.06957412409074
F            6.25992029744031       -1.48537109386654        0.10272099401059
C            4.18838390118808       -1.56327512813688       -1.02721211980690
F            4.59750000648761       -2.58665771223821       -1.77483323317424
C            2.90507709552403       -1.05624290728353       -1.19563615382563
F            2.12371047064962       -1.62768028913119       -2.11638834700979
C            0.90051443506376        2.01845950127196       -1.11782606480411
C            2.15750846714934        2.77134579800280       -1.30379975124167
F            3.21797804297940        2.11869220360583       -1.79724509938723
C            2.29935252565904        4.10159494418154       -1.01662400297139
F            3.48269186577600        4.68679600208750       -1.19646912089213
C            1.21338114531677        4.86838006578043       -0.56123801262852
F            1.35709763651416        6.16073673106183       -0.29205086834924
C           -0.03606562079668        4.24013023910085       -0.43365078024504
F           -1.09111501806123        4.95607399526247       -0.04758165954345
C           -0.19795974684967        2.90858197151792       -0.71095229547648
F           -1.42484667982265        2.38976434261351       -0.56056412783411
C           -0.17679331469904       -0.25749456214134       -0.02575110871848
C            0.27156919378216       -1.72917943236550        0.05857188419049
C           -0.13651541764629       -2.71284750651469       -0.83835992572023
F           -0.95023222905857       -2.40625899734944       -1.84417321026932
C            0.27351027462442       -4.04079228649949       -0.73108514979522
F           -0.15576569302619       -4.93408065738184       -1.61696705266117
C            1.12492493033657       -4.42852200435292        0.29791036512182
F            1.52548075757263       -5.68947815574264        0.41033304726492
C            1.55112435592058       -3.46719914886178        1.20968096339176
F            2.37693264101777       -3.79679844921238        2.20258656900750
C            1.12454668550134       -2.14988779853762        1.08271924089334
F            1.57291885968792       -1.27273025168329        1.99217697098677
C           -0.60274925123874        0.10476661291188        1.39416752103003
C           -0.24111054810213        1.22371808211191        2.13533925040284
F            0.56927692570229        2.15749659754670        1.63645483956865
C           -0.70117164889358        1.44766603180198        3.43325527487507
F           -0.30943921061827        2.54687876879687        4.07552146771880
C           -1.55235894660281        0.54176298962237        4.04856164540348
F           -1.99017674589362        0.74560809645642        5.28729005163843
C           -1.94369956624325       -0.58464494253712        3.33157941003717
F           -2.77419024247866       -1.47626397527060        3.87302141516948
C           -1.47721034078570       -0.78120547612826        2.03975207850527
F           -1.93141561579814       -1.86571477723751        1.39275881806663
B           -1.39915985556498       -0.06148453147782       -1.12876920994588
C           -2.95062818437346       -0.25527320346580       -1.01256570662893
C           -3.75032975937197        0.27739791095569        0.00478371297482
F           -3.20180820853032        1.02655803976039        0.96996912032109
C           -5.12920157008593        0.10977320602541        0.05273661736595
F           -5.82965415275740        0.64413620439633        1.05566138124868
C           -5.77737478805627       -0.60887053718906       -0.94775981125921
F           -7.09510086453979       -0.78297040029594       -0.90972602761422
C           -5.02357093754820       -1.12643143582784       -1.99737078717251
F           -5.62493562022751       -1.79768373164064       -2.98085278872886
C           -3.64642792885439       -0.93201747223349       -2.02673919463912
F           -2.98421994998816       -1.42996729667510       -3.06850774460994
