62
 energy: -201.573991958149 gnorm: 0.000038278656 xtb: 6.7.1 (edcfbbe)
F           -1.16913693242081        0.54282189686500       -3.62537443077694
C           -0.70132280226552        0.37447257462448       -2.40209179261351
C            0.71751893154984        0.65776832383821       -2.17270838428240
F            1.57619262035313        0.42331443258643       -3.18361631815559
C            1.05950076774979        0.37777090746599       -0.71215475183106
C            2.39537481630131       -0.23921333369111       -0.42352300714353
C            3.31335752546823        0.28589542899376        0.48876705034425
F            3.03910820641691        1.39858341145314        1.16153637178672
C            4.55258680304922       -0.30992153592773        0.71104770307071
F            5.39012658040983        0.22857062742515        1.59328464449295
C            4.91652101003187       -1.45595815105382        0.01108988736978
F            6.09573918440424       -2.02876214781893        0.22033565957604
C            4.02543587695278       -1.99222243648725       -0.91405724684675
F            4.34073450854476       -3.09369646164272       -1.59305521567772
C            2.79276544266315       -1.38406072781254       -1.12162660304036
F            1.96370221147543       -1.94024627360186       -2.00947195777189
C            1.07182882011193        1.85664183413646       -1.24219261044466
C            2.39138419029055        2.47760861918498       -1.47629280323223
F            3.38474533654469        1.70014516839878       -1.92674339974251
C            2.65594040722523        3.80515168872401       -1.27709131211479
F            3.88617943247486        4.26684788346398       -1.49722213033576
C            1.64792764365408        4.69564614331934       -0.87028814419946
F            1.91084666705405        5.98401628485938       -0.68497621755043
C            0.34781737450168        4.19355239583702       -0.69846444581274
F           -0.63400846794505        5.02611833340373       -0.35561889909140
C            0.06262467439110        2.86773311362738       -0.89044860812259
F           -1.20490847273645        2.47388681858563       -0.70295019106823
C           -0.20436779349685       -0.24218288537699       -0.01484751575697
C            0.10686276999192       -1.74246868418565        0.14896180701164
C           -0.39810052759975       -2.73235446777594       -0.69006870896400
F           -1.19157976255209       -2.40896635504169       -1.70674340872721
C           -0.11033116634197       -4.08445495043959       -0.51111570009914
F           -0.62924011276404       -4.98154677248156       -1.34357266888293
C            0.71249961302467       -4.49200454124229        0.53334900554802
F            0.99680936986809       -5.77634808309031        0.71391330165945
C            1.23381799913025       -3.52530118112214        1.38815581335542
F            2.03671514342848       -3.87401781816378        2.39322891706273
C            0.92680548819407       -2.18350083536585        1.19140755318714
F            1.45976445242558       -1.30335114153755        2.05115168799224
C           -0.58536951900045        0.23502341557206        1.38355660287327
C           -0.12298621365364        1.35926301769578        2.05777342296751
F            0.75611373756242        2.19290309713831        1.50130842191249
C           -0.54843953572829        1.69364760083599        3.34369503715390
F           -0.05658569484464        2.78849873972300        3.92123275116508
C           -1.46722078383020        0.89981751281892        4.01407535753916
F           -1.87154285808907        1.20847522033712        5.24250517667224
C           -1.96365093877792       -0.22491083735932        3.36263944881140
F           -2.86387574546496       -1.00867462316815        3.95690698395287
C           -1.52831028084094       -0.53305002426375        2.08175220366778
F           -2.08324817898665       -1.60694292301851        1.49861477851737
B           -1.41000629930595        0.00413384869340       -1.12585293228991
C           -2.97146882403697       -0.03752457835685       -0.99274771008556
C           -3.70808215825812        0.62051423294339       -0.00146330066981
F           -3.08332484411630        1.37098569097104        0.91515325727352
C           -5.09558644128801        0.57882488420111        0.06665035051907
F           -5.73341403650992        1.22717190086820        1.04383758643837
C           -5.81710375475736       -0.13447029900634       -0.88627021433164
F           -7.14436341627543       -0.18972620816401       -0.82747040603500
C           -5.12541488162942       -0.77304603477654       -1.91175514265504
F           -5.79664327106598       -1.44182203408280       -2.85071373321058
C           -3.73695758087508       -0.70396684004614       -1.96256038657316
F           -3.13445468547478       -1.31495495167137       -2.98010001334024
