79
 energy: -128.171182154487 gnorm: 0.000020746650 xtb: 6.7.1 (edcfbbe)
C            0.67151102725588        0.75486694864493        3.16378663395786
C            2.06225302179724        0.84690725987439        3.01877752809736
C            2.69053650710960        0.21571120495237        1.98189884790844
C            1.95211739835759       -0.50170245892907        1.01709543082311
C            2.57648884475198       -1.21427323418651       -0.04303257394638
N            3.96874966837105       -1.14889925157133       -0.21313499309638
C            4.82855449787475       -2.22778390320627       -0.19932038087116
C            4.55498422922952       -3.56686910708075        0.03780828624860
C            5.61572643384404       -4.45159767375698        0.02138135887656
C            6.91933697318851       -4.02036754186714       -0.21731048232483
C            7.19857026633274       -2.68659947745939       -0.43762035324287
C            6.14889321280868       -1.77713508138358       -0.42779624927083
C            6.06852008738671       -0.35405653774303       -0.60356728601739
C            7.00794219221249        0.63424693497540       -0.86733902478073
C            6.57616557691863        1.93880979634863       -0.99841241275106
C            5.22511827162221        2.26253192919107       -0.88735931061106
C            4.26988634042160        1.29867655198602       -0.62883685362461
C            4.70361121267850       -0.00995656358280       -0.46871116483312
C            1.82474906413130       -1.99484205578543       -0.88921466040039
C            0.43175364923532       -2.00701369783107       -0.79523863945574
C           -0.21592908782796       -1.25617540429670        0.15805580451393
C           -1.67038736265881       -1.14553936877486        0.09436166496214
N           -2.50517823843225       -2.14785414903721        0.05968517307918
C           -3.74485099264031       -1.59665493953532       -0.06436728543788
C           -4.99780132965247       -2.26854086225869       -0.10198503532151
C           -5.07772411070412       -3.66088596752528        0.00752459825189
C           -6.29879321444790       -4.28705316115905        0.00503629485257
C           -7.45945421335845       -3.52328695620562       -0.10306481824939
C           -7.39223084328960       -2.15454312665100       -0.21840731824783
C           -6.16290091886614       -1.47779489610204       -0.23049946291615
C           -6.05656381113692       -0.03802090993494       -0.39145367526216
C           -7.18555909102876        0.76370369071763       -0.61288049445675
C           -7.08825312360750        2.11947047649457       -0.81799983895230
C           -5.84138920909586        2.73693581505274       -0.83031533135575
C           -4.71110202302300        1.99007757296376       -0.60801098103626
C           -4.79217778277275        0.61170399821530       -0.36371119847306
C           -3.65258827503706       -0.20786833542168       -0.12858575476137
N           -2.31005001644564        0.07453738713416       -0.01567260107375
C           -1.64171443257874        1.30836596539648        0.07955040897327
C           -1.97959340897937        2.22387817588230        1.07383837342563
C           -1.21648085852208        3.35862921479038        1.24909227665091
C           -0.10552145907406        3.59499829461315        0.44852685942610
C            0.19693242740565        2.70548599366250       -0.58772137217565
C           -0.57138848336855        1.56435252388150       -0.76373568469883
O            1.24391305241321        2.91281608972061       -1.44363932251520
C            1.77162192964157        4.21982083651737       -1.37812462885332
C            1.93082757685458        4.64610871971524        0.08009255081841
O            0.66864322957956        4.69377444827142        0.70930805324768
C            0.53882117589049       -0.55337620298911        1.13599891035535
C           -0.06973528253787        0.05965775504532        2.25046988603189
H            0.19190145007765        1.22126415605723        4.01122750988426
H            2.63910976130185        1.39472058598951        3.74926223729457
H            3.76707285012383        0.24650399927594        1.90568000985864
H            3.54821123340030       -3.90397099144881        0.23421607356994
H            5.43131416778856       -5.50069417096247        0.19968283066816
H            7.72081954980394       -4.74402744076892       -0.22341386827087
H            8.21020128806540       -2.35219328119874       -0.61199992063486
H            8.05266916516374        0.38236221190566       -0.96980575921767
H            7.29095619571547        2.72301072224665       -1.19946716967312
H            4.92087905927447        3.29262606703328       -1.00874908495200
H            3.22153618471528        1.54680246471804       -0.56443449928584
H            2.31535865716593       -2.56243795700798       -1.66606427957582
H           -0.15038407101334       -2.57477662963708       -1.50468023287198
H           -4.15518906467083       -4.21263436743832        0.09991472339306
H           -6.36570818216644       -5.36154719488743        0.09129292397520
H           -8.42356992044321       -4.01118294290972       -0.09673775629995
H           -8.31708023655180       -1.60523456955333       -0.29650643187208
H           -8.16548910220047        0.31506258924937       -0.63665564276328
H           -7.98082502324107        2.70419544059169       -0.98548404494305
H           -5.76189861669951        3.79740030523196       -1.01865166982417
H           -3.74347426078224        2.46612559930117       -0.63898783396449
H           -2.82507528019356        2.03229640517839        1.71652726423664
H           -1.44678114779581        4.06972339083688        2.02553167745802
H           -0.30897486563782        0.88230932087588       -1.55641207375364
H            2.73076046984913        4.19001188784617       -1.89611542374997
H            1.09767947834609        4.92112700783582       -1.88863629761488
H            2.35375377789189        5.64840532960066        0.15837031967286
H            2.58035385666629        3.92758958706618        0.59928646832738
H           -1.13327076476538       -0.05678504397736        2.39234536870246
