79
 energy: -128.096327616848 gnorm: 0.000132989166 xtb: 6.7.1 (edcfbbe)
C            0.90367795888261        1.58381647479686        2.91833561985752
C            2.22651450575349        1.71727805898332        2.54272295146444
C            2.78741959487588        0.82995561508750        1.63846775263874
C            2.01316070084949       -0.17861325584931        1.04443593841680
C            2.58248129677514       -1.22258190116773        0.26023521121877
N            3.91956043051681       -1.18975794982604       -0.12089605819436
C            4.84226434842794       -2.19624126657904        0.08700589761116
C            4.71041428580454       -3.37635432036802        0.80647413230499
C            5.81170305348455       -4.20709494677915        0.88902199412923
C            7.02193996986865       -3.87260767280364        0.28548018497809
C            7.16840285735195       -2.68412428357500       -0.40490062740210
C            6.07603903572783       -1.83513801593743       -0.50367397087857
C            5.87581190072586       -0.54542461611143       -1.10623939385293
C            6.69257294935549        0.30025862117444       -1.84257461456864
C            6.16069257905832        1.48395913773406       -2.31752997025975
C            4.82979495207564        1.81833789979884       -2.07709472442022
C            3.99610137816056        0.99539515884536       -1.34389727328697
C            4.53326963498653       -0.18387744705129       -0.84480512997316
C            1.80425082649790       -2.36978109147089       -0.06021347132573
C            0.46624429943828       -2.38847362879754        0.15609419352391
C           -0.19638659760969       -1.22109208475094        0.67611920564131
C           -1.56687584524181       -1.10069270531736        0.41614993371753
N           -2.36138027716995       -2.16242344131367        0.21585338268107
C           -3.58464944537533       -1.68477636980292       -0.01119770147825
C           -4.78612321533847       -2.42960191735945       -0.19546451817807
C           -4.78295051578164       -3.82468535533953       -0.11500401501298
C           -5.95468826852709       -4.53095497685737       -0.24768879298198
C           -7.14569634362610       -3.84115541766786       -0.45521334374822
C           -7.15815625846185       -2.46659488374371       -0.54441215478667
C           -5.98169777273627       -1.71297235460406       -0.42899679868986
C           -5.95203111264533       -0.26630481733503       -0.56558551516639
C           -7.09655249497283        0.45808996302090       -0.91519628417381
C           -7.07266543748344        1.82200129304953       -1.10214516156115
C           -5.87686864954415        2.52295661958013       -0.96663772773033
C           -4.73231349582254        1.85470996087426       -0.61486027235658
C           -4.73930688710466        0.46633647232675       -0.38222077534753
C           -3.58539510026514       -0.26896421604250       -0.02223556502656
N           -2.29561021574330        0.09492794178781        0.26876636205634
C           -1.71208890961955        1.37017900474489        0.31009865604404
C           -2.16824042054133        2.33924830892309        1.20201302559903
C           -1.48208639389985        3.52770432255137        1.33265013607908
C           -0.32970954475899        3.76461241912311        0.59303796484217
C            0.08995552814136        2.82058298711178       -0.35007434839384
C           -0.60537984767933        1.62971797390964       -0.48671827188862
O            1.18609267083786        3.01880277801617       -1.14516657035945
C            1.67082330137627        4.34337969253350       -1.11960541707752
C            1.68702213281560        4.86802180611121        0.31423320967161
O            0.37282888926115        4.91742114690571        0.82420144313624
C            0.62438504387083       -0.23371220478619        1.34096833746583
C            0.11693370766618        0.59679036448149        2.33336515409732
H            0.47538506921766        2.23955868362496        3.66105336318751
H            2.84083925000796        2.49114850047973        2.98136030475708
H            3.83934070121994        0.90333763204250        1.40657049410254
H            3.78361163989595       -3.63116279559541        1.29709184572867
H            5.73417833051556       -5.13320746235956        1.43894586498311
H            7.85910297419001       -4.54921787658447        0.37084064804635
H            8.11273117066884       -2.41643940426848       -0.85444094568579
H            7.71858531199136        0.03198939936054       -2.04442397892882
H            6.77940957854111        2.15695181890157       -2.89248981400832
H            4.43737367672707        2.73966805306863       -2.48204129691973
H            2.96489233609728        1.26196302596438       -1.17194928105171
H            2.29364850700140       -3.19759427818581       -0.55087787248874
H           -0.15183537532349       -3.21439000427648       -0.15379042238709
H           -3.83925016347398       -4.31664973628094        0.06159574604282
H           -5.95700558371991       -5.60888974478033       -0.18471714717281
H           -8.07275148275776       -4.38845493894490       -0.54778695652175
H           -8.10632093260606       -1.97718679356347       -0.70102769092472
H           -8.03284563517217       -0.05640340470070       -1.05986635518129
H           -7.97813190749897        2.34501191624070       -1.37171227771684
H           -5.84906234589839        3.58788358092165       -1.14368869940261
H           -3.80421508369320        2.39745072300250       -0.53721555789885
H           -3.03739760329566        2.14295593744307        1.81113305958048
H           -1.80118530675239        4.28020690224435        2.03535888568406
H           -0.25561845431948        0.90308649841711       -1.20274626987410
H            2.67588899535804        4.31350526645792       -1.54193055320263
H            1.02896040937516        4.98828180079967       -1.73532237496647
H            2.07760593556580        5.88511813767814        0.36219040126273
H            2.30219975544999        4.20022541487484        0.93268218290606
H           -0.90346609556883        0.46597873327738        2.65962339496422
