79
 energy: -128.167915457596 gnorm: 0.000080648939 xtb: 6.7.1 (edcfbbe)
C            1.16141996089275       -3.35957346655635        2.70958767714510
C            2.55493075942191       -3.24154007060116        2.61813258787279
C            3.11316871835748       -2.37865007916072        1.71765436299656
C            2.30335777516955       -1.59688251596138        0.86632256819799
C            2.85998829235213       -0.68982400304137       -0.07498523256609
N            4.24804124873636       -0.48278713993391       -0.12582109172363
C            5.04615274489435       -0.67466112251979       -1.23410362051513
C            4.71180593428164       -1.18559589932529       -2.47966040731879
C            5.71949928086058       -1.30370284317071       -3.41718779673957
C            7.03046261741545       -0.93063441219211       -3.12673607902493
C            7.37082722506272       -0.43552886749216       -1.88380159366815
C            6.37533523347122       -0.30557840311190       -0.92414036458094
C            6.36369069169378        0.15033162902359        0.43781604194786
C            7.33937200827245        0.65190167589739        1.28964984662798
C            6.97292386410271        1.02888969019330        2.56608659088069
C            5.65137275746024        0.92135804688844        2.99527764165096
C            4.66280209281405        0.42482105542667        2.16822646362723
C            5.02997397930059        0.02676314287379        0.89058868169915
C            2.04417058242898       -0.02030926711712       -0.95500171887123
C            0.65961579778730       -0.18081538055239       -0.90377946590451
C            0.07175657197549       -1.00140699653523        0.03387420138397
C           -1.38025375162536       -1.11182186655183        0.09052327135451
N           -2.05148781250027       -2.23194956778653        0.17080735516289
C           -3.36574200793508       -1.88573713600202        0.15802170191620
C           -4.49273027263128       -2.75284507628706        0.19003539696790
C           -4.33734726042819       -4.14239294513590        0.23075662071774
C           -5.43781531958882       -4.96232933456110        0.22877450957363
C           -6.71117501882802       -4.39826153914004        0.18113370208214
C           -6.87509328844327       -3.03316155110217        0.14691488746325
C           -5.77582632215991       -2.16088912448148        0.15785393088438
C           -5.91441408568290       -0.71467939295177        0.16167111965897
C           -7.17307497504989       -0.09858548406805        0.20998272352096
C           -7.31549950224242        1.26749775901713        0.26446517887292
C           -6.19068227853810        2.08560674249786        0.29279183972165
C           -4.93942177510028        1.52333510379882        0.23734600597503
C           -4.77297021921672        0.13387259956583        0.14812494471597
C           -3.50003981505313       -0.50069986847725        0.08351323475626
N           -2.21352691290466       -0.01407150850713        0.02596085534667
C           -1.76873676728907        1.31712816201868       -0.08418044536059
C           -0.95667342314046        1.85876281884383        0.90650312412766
C           -0.46803569522894        3.14156161867274        0.76625886597859
C           -0.79045386591377        3.90339703630239       -0.34984526990002
C           -1.63912948434557        3.37135379794115       -1.32864855636262
C           -2.10708570439543        2.07189920563119       -1.19976544842942
O           -2.02811173257420        4.09224532715462       -2.42487368187562
C           -1.77581521896539        5.47514445539780       -2.30351162339218
C           -0.36979286199893        5.70726266294106       -1.75329362441745
O           -0.25788610896861        5.15989806439838       -0.45781977766523
C            0.89141471037791       -1.74741511955396        0.92825841094442
C            0.35028170711065       -2.63393162957062        1.88228277164885
H            0.73128821210172       -4.03731473825020        3.43202623146347
H            3.18607967315986       -3.83736853758050        3.26078288537141
H            4.18701473093336       -2.29637132289005        1.64317659988119
H            3.69938577001364       -1.48639424503260       -2.70462952699307
H            5.48714397454235       -1.69651722173060       -4.39614001512494
H            7.78955867218152       -1.03798564950366       -3.88732646926226
H            8.38890861795917       -0.15676054116344       -1.65690246783197
H            8.36133300698143        0.74647510418486        0.95455128928649
H            7.71708503352378        1.41960513466232        3.24416625945187
H            5.39420908873642        1.23505527895864        3.99629820308013
H            3.63940306146937        0.34674752612007        2.50367045483605
H            2.47961430843949        0.64716360254081       -1.68395666367861
H            0.04980918974263        0.35006347881142       -1.61890926893005
H           -3.33354252728490       -4.53744635799172        0.25567086784332
H           -5.32345567794200       -6.03585567685484        0.25855853093054
H           -7.58050830468775       -5.03994070164549        0.17125761777194
H           -7.87993395726714       -2.64345465956425        0.10795453671357
H           -8.06576948257547       -0.70283388910390        0.21461191765387
H           -8.30219574814302        1.70543884789652        0.29997300103549
H           -6.30036684512059        3.15779752392997        0.36258927020783
H           -4.06939357104727        2.15893179352337        0.27962583417721
H           -0.70377332476004        1.26917314455620        1.77371858895906
H            0.17479992058045        3.57805165360420        1.51302719068040
H           -2.74513567573148        1.66916211555354       -1.97089178324185
H           -1.88770987242777        5.89890853249047       -3.30219735560904
H           -2.50977101552557        5.93033980243604       -1.62457071587622
H           -0.15003274704430        6.77146831958614       -1.65998779195301
H            0.36303939245126        5.23605151215665       -2.42254456113024
H           -0.72062897672535       -2.74896181271535        1.92835602325412
