79
 energy: -128.096303585225 gnorm: 0.000061629956 xtb: 6.7.1 (edcfbbe)
C            0.85391089347655        1.40250588984014        3.02157289662121
C            2.18920282117702        1.52733024084824        2.69050031207454
C            2.75650523991140        0.68071435389540        1.75163656305148
C            1.97807298980135       -0.27257663441789        1.07726195026571
C            2.54681227830862       -1.28174552720655        0.24812072052541
N            3.89742160164388       -1.26438593395058       -0.08352914018470
C            4.78513780423049       -2.30660079273545        0.10019136526677
C            4.59273742081949       -3.52512441463906        0.73726377793920
C            5.66863287955670       -4.38903205835067        0.81410956814674
C            6.91240399101599       -4.05066409776983        0.28559742170706
C            7.11840599215582       -2.82593698906223       -0.32112381627641
C            6.05245106785465       -1.94324767465363       -0.41295142536473
C            5.91107369100294       -0.61351943233153       -0.94041609736377
C            6.78114592490966        0.25462746345648       -1.58363432120459
C            6.30046724844161        1.47996046865677       -2.00437616779930
C            4.96798900879429        1.83369914432695       -1.80349530095932
C            4.08158670911151        0.98883222524899       -1.16298937557769
C            4.56707242360943       -0.23302659334073       -0.71581112425871
C            1.75179553080532       -2.38597406815753       -0.16748185128138
C            0.40806161357520       -2.38616430959103        0.01124625105225
C           -0.24296033350928       -1.24017325617051        0.58931614770400
C           -1.60596524987065       -1.07665634814838        0.31288863267144
N           -2.41837220318628       -2.10739370299337        0.03824293882689
C           -3.62869773835296       -1.59125726511807       -0.17389100419677
C           -4.84137153521816       -2.29911305059921       -0.41962748795449
C           -4.86372689283630       -3.69629072023238       -0.43459792907073
C           -6.04567260009654       -4.37022236619717       -0.62984112069107
C           -7.22135044762586       -3.64597779064336       -0.80489483614650
C           -7.20863446008418       -2.26855160167266       -0.79925477315793
C           -6.02101793277179       -1.54616787547475       -0.61698741633186
C           -5.96427207065130       -0.09432783665471       -0.65208511840345
C           -7.09476160824077        0.67402965269912       -0.94977651248817
C           -7.04551672937925        2.04698743809404       -1.04082747650455
C           -5.83674070379901        2.71429141644109       -0.85852361450176
C           -4.70534989133213        2.00193112818918       -0.55405228916804
C           -4.73876379452559        0.60131358174529       -0.41608266574008
C           -3.60124071601414       -0.17755339444976       -0.09823416588183
N           -2.30783074366204        0.14099132155834        0.22824412741229
C           -1.69027824179117        1.39635779622638        0.33684678575817
C           -2.12363825475897        2.33330853055068        1.27322462448992
C           -1.40366603403696        3.49308613735719        1.46605991633843
C           -0.23968885186002        3.73188658354608        0.74562787561922
C            0.15850798503296        2.82326539014471       -0.24062494968643
C           -0.57062217772861        1.66187976922666       -0.43963870722868
O            1.26529763420789        3.02792311877385       -1.01928057998373
C            1.78607621273515        4.33573717999435       -0.92714684274933
C            1.81017915124436        4.78782112426452        0.53110192704467
O            0.49515491541855        4.85023290853844        1.03757067114185
C            0.58044891091072       -0.31265315267361        1.33205505904598
C            0.06341395607912        0.46922919200690        2.35853845891972
H            0.41873298603509        2.02343707237764        3.78973684175135
H            2.80693435020684        2.26086333015971        3.18936389634467
H            3.81618867039298        0.74275346585179        1.55447562713161
H            3.63916802622188       -3.78489883768733        1.17060333170759
H            5.54400344489898       -5.34516222929183        1.30031293811168
H            7.72823052267283       -4.75365637326766        0.36404285920024
H            8.08814933468590       -2.55625808570859       -0.71145738268594
H            7.80862181118097       -0.02793182520757       -1.75635819166627
H            6.96116284252878        2.17142159159717       -2.50601688946684
H            4.61770874764432        2.78923988529432       -2.16560845587781
H            3.04958947955077        1.27022152233181       -1.02176240877794
H            2.23604327673740       -3.19235371402798       -0.69739890725547
H           -0.21909255021047       -3.17574443625331       -0.36754974373778
H           -3.93113856807572       -4.21633204533935       -0.28092225592036
H           -6.06770909277667       -5.44971096857423       -0.64103114682671
H           -8.15633124638348       -4.16847606470618       -0.94752358505596
H           -8.14573386498617       -1.75253786902952       -0.93560964856678
H           -8.04077235913821        0.18867671367713       -1.12790648690960
H           -7.94119100158617        2.60434008989269       -1.27144742096171
H           -5.78882832759903        3.78819044291275       -0.96162918280943
H           -3.76726640404127        2.52040593878078       -0.43976201286639
H           -3.00162073774903        2.13307141934799        1.86821877446348
H           -1.70532021499534        4.21914130627343        2.20342829553257
H           -0.23676084652003        0.96120921781037       -1.18842176795364
H            2.79151221218641        4.29912962070719       -1.34788974986721
H            1.16479789451470        5.02775430660580       -1.51203997726561
H            2.22983455936625        5.78941583264170        0.63118395797829
H            2.40260064256859        4.07252833152653        1.11797316982829
H           -0.96758889119703        0.34105514281796        2.65067648510689
