  68
       -116.82998852
 C          2.0545872015        3.9407666084        2.7350812785
 C          1.2364379094        3.2913981581        1.8150118526
 C          1.6882007012        2.2002083796        1.1000628304
 C          2.9824866171        1.7438372315        1.3223393672
 C          3.8138749044        2.4493101975        2.2175880019
 C          3.3617686430        3.5383680267        2.9407941703
 O          5.0747670103        1.9436923500        2.2342865228
 C          5.0910103808        0.9164488616        1.3430699021
 C          6.2258327504        0.1975210094        0.9865737066
 C          6.1068282399       -0.7579826576       -0.0010298049
 C          4.8584928528       -1.0225276569       -0.5605011234
 C          4.4429718236       -1.9309170623       -1.5957855557
 C          5.1255294043       -2.8378274917       -2.3953341217
 C          4.4084467349       -3.5746079995       -3.3175321816
 C          3.0306341033       -3.4201604521       -3.4432339044
 C          2.3300008816       -2.5243525970       -2.6559215764
 C          3.0483239242       -1.7794570756       -1.7368792156
 N          2.5947081688       -0.8388998632       -0.8139971169
 C          1.2756611607       -0.7528953193       -0.3996464442
 C          0.9283622411       -0.7373049557        0.9585758311
 N         -0.3281406127       -0.7531990677        1.3485133283
 C         -1.2783618053       -0.7445655416        0.4121872708
 N         -2.5981360875       -0.8220116464        0.8261751580
 C         -3.0561841217       -1.7523129226        1.7574335834
 C         -2.3426664299       -2.4808029151        2.6931063184
 C         -3.0463922918       -3.3685248133        3.4868127364
 C         -4.4223783852       -3.5307776466        3.3510933728
 C         -5.1346630484       -2.8097471817        2.4128272236
 C         -4.4491278326       -1.9108003322        1.6068474540
 C         -4.8597169384       -1.0168056619        0.5569583823
 C         -6.1040750607       -0.7620216639       -0.0160369437
 C         -6.2178632967        0.1828907956       -1.0145199331
 C         -5.0826549516        0.9025047993       -1.3686938439
 O         -5.0619643711        1.9228530553       -2.2678225146
 C         -3.8031324855        2.4336176446       -2.2431501489
 C         -3.3488228813        3.5207538499       -2.9678544482
 C         -2.0460401928        3.9310834001       -2.7503142995
 C         -1.2336848782        3.2903137899       -1.8191143466
 C         -1.6869248025        2.2000265892       -1.1037643117
 C         -2.9771011435        1.7372844577       -1.3359297319
 C         -3.8112939676        0.6989924870       -0.7897002470
 C         -3.6944319119       -0.3430458480        0.1300927732
 C         -0.9310301355       -0.7454927854       -0.9461415721
 N          0.3252778352       -0.7695062847       -1.3357713730
 C          3.6942613293       -0.3477124661       -0.1318836535
 C          3.8153207475        0.7039304621        0.7766884456
 H          1.6685796267        4.7870151043        3.2824475191
 H          0.2321553403        3.6531336651        1.6516412430
 H          1.0593476057        1.7323845803        0.3610798640
 H          4.0157103041        4.0543494794        3.6250870272
 H          7.1707464276        0.4157473890        1.4559299047
 H          6.9733614311       -1.3028291749       -0.3404584431
 H          6.1931830150       -2.9599614983       -2.2957278676
 H          4.9209331991       -4.2819805272       -3.9522035884
 H          2.4970972597       -4.0092555602       -4.1741092556
 H          1.2645051326       -2.3970894220       -2.7576546843
 H          1.6741162584       -0.7453096036        1.7401379913
 H         -1.2785293086       -2.3477824491        2.8013392075
 H         -2.5169003126       -3.9450227986        4.2305342932
 H         -4.9374897903       -4.2307211819        3.9919483635
 H         -6.2009997427       -2.9375418098        2.3061071246
 H         -6.9720374000       -1.3053276527        0.3222507377
 H         -7.1597376439        0.3931909957       -1.4935732448
 H         -3.9983258456        4.0304465882       -3.6609907498
 H         -1.6591432539        4.7772776444       -3.2971300339
 H         -0.2328590370        3.6577254573       -1.6477601128
 H         -1.0632695559        1.7382644301       -0.3564417429
 H         -1.6767090445       -0.7611199893       -1.7276932573
