  89
       -134.92613848
 C         -2.4813375075       -5.9183399421       -1.9372580958
 C         -3.2946204463       -5.9473905879       -0.8158428219
 C         -3.6844896192       -4.7729702305       -0.2030811215
 C         -3.2677447903       -3.5416513770       -0.7124203423
 N         -3.6562300041       -2.3538364231       -0.0923116386
 C         -4.9176923765       -2.2447167716        0.4987231740
 C         -6.0360211561       -2.8302822124       -0.0956003208
 C         -7.2806506403       -2.7000642980        0.4884749435
 C         -7.4331089044       -1.9838278968        1.6650169209
 C         -6.3253430055       -1.4029960871        2.2609198799
 C         -5.0758649714       -1.5326961617        1.6888635895
 C         -2.7916021850       -1.2524386740       -0.0654725080
 C         -1.4270586629       -1.4337726016        0.0759447351
 C         -0.5383857176       -0.3375795440        0.0983721012
 C          0.8759536391       -0.5267801278        0.2010228557
 C          1.4980598026       -1.7535149154       -0.1713027902
 C          2.8448982245       -1.9115450667       -0.1362091314
 C          3.7135994737       -0.8520516852        0.2740109765
 C          5.0943469461       -1.0763107903        0.2349664201
 N          5.6198612695       -2.3126918542        0.0952118163
 C          6.9430269645       -2.1845297443        0.2291997181
 C          7.9531000987       -3.1579305430        0.1784888361
 C          9.2577015646       -2.7392393067        0.3025633366
 C          9.5853584627       -1.3896707322        0.4663881875
 C          8.6079124453       -0.4044892948        0.5287125772
 C          7.2933394476       -0.8107703876        0.4294894703
 N          6.1062762273       -0.1199706323        0.4149596965
 C          6.0039539725        1.2726379304        0.3508516807
 C          5.2932290040        1.8785143251       -0.6859435317
 C          5.2159252705        3.2550985467       -0.7544277964
 C          5.8529040488        4.0411506540        0.1937225239
 C          6.5661594562        3.4411189703        1.2187971988
 C          6.6436141471        2.0634839607        1.3024977929
 C          3.0886675276        0.3473684401        0.7301903289
 C          1.7391066588        0.4971642459        0.6816967542
 C         -1.1038880412        0.9548898693        0.0213088812
 C         -2.4681969227        1.1362336780       -0.1266767898
 N         -3.0095604860        2.4253698811       -0.2296974455
 C         -4.2475257008        2.6890983408        0.3632642590
 C         -4.5656736302        2.1269955586        1.6004936844
 C         -5.7960264820        2.3676750862        2.1780929336
 C         -6.7243441894        3.1742687990        1.5401002989
 C         -6.4107902574        3.7419352076        0.3154678808
 C         -5.1850319492        3.5023368122       -0.2739007516
 C         -2.3363406210        3.4232986178       -0.9333599335
 C         -1.5707182781        3.1086668617       -2.0577660291
 C         -0.8990477568        4.1016575107       -2.7425470072
 C         -0.9824738937        5.4214140270       -2.3282088060
 C         -1.7445652222        5.7408045276       -1.2158482842
 C         -2.4142822079        4.7545995366       -0.5191872194
 C         -3.3250618047        0.0342244311       -0.1898957067
 C         -2.4527832672       -3.5187635385       -1.8458694088
 C         -2.0628763113       -4.6991618545       -2.4463870246
 H         -2.1751015293       -6.8384518319       -2.4104126812
 H         -3.6202852421       -6.8927680783       -0.4082120145
 H         -4.3047135389       -4.7989836084        0.6807014554
 H         -5.9203485776       -3.3765275101       -1.0202490807
 H         -8.1393512157       -3.1537230129        0.0165132269
 H         -8.4083952397       -1.8812778986        2.1152722970
 H         -6.4340395492       -0.8533490892        3.1837448438
 H         -4.2093778919       -1.0941751406        2.1597189419
 H         -1.0482552701       -2.4333242865        0.2112667024
 H          0.8861659967       -2.5642026121       -0.5364481069
 H          3.3103389189       -2.8334307128       -0.4451456571
 H          7.6952920097       -4.1954953920        0.0427735572
 H         10.0560270611       -3.4661399382        0.2671480586
 H         10.6239668694       -1.1052729617        0.5449554409
 H          8.8741560571        0.6358482354        0.6394319075
 H          4.8040856591        1.2598243480       -1.4230330978
 H          4.6612217309        3.7185919881       -1.5567619376
 H          5.7928261583        5.1171491710        0.1339289071
 H          7.0596606632        4.0491784030        1.9625699587
 H          7.1799493879        1.5915304047        2.1121621341
 H          3.6915467583        1.1290285609        1.1638897715
 H          1.3062945652        1.4068478414        1.0705055737
 H         -0.4649126021        1.8222246528        0.0466766719
 H         -3.8351098642        1.5117866533        2.1034329330
 H         -6.0280457242        1.9323070255        3.1384971587
 H         -7.6852229279        3.3605616226        1.9945235639
 H         -7.1307375519        4.3680028791       -0.1903965822
 H         -4.9470926970        3.9328046185       -1.2356483098
 H         -1.5134150270        2.0831256632       -2.3903910595
 H         -0.3124881556        3.8433815104       -3.6116777744
 H         -0.4576416003        6.1947539081       -2.8675798658
 H         -1.8108064565        6.7655427725       -0.8817003751
 H         -2.9941114853        5.0047199392        0.3570386787
 H         -4.3827951531        0.1740210075       -0.3447160234
 H         -2.1347802555       -2.5699139428       -2.2512395791
 H         -1.4329804693       -4.6664714947       -3.3228574646
