101
 energy: -156.609516794071 gnorm: 0.000118353479 xtb: 6.7.1 (edcfbbe)
C           -4.32480697129619        7.85267258226383       -0.75972847776203
C           -5.08065757232797        6.69699838062958       -0.87552029468232
C           -4.46131923735820        5.46183605072147       -0.91822429290762
C           -3.07269363115723        5.36099054299286       -0.83486456184410
C           -2.41797965325986        4.04819283749787       -0.87333716345383
C           -2.86921125897556        3.04871146041141       -1.73868009799776
C           -2.27101071365218        1.80874027684950       -1.76646692991166
C           -1.19685480008347        1.52235732825894       -0.91821979729523
N           -0.61731017617690        0.25460997938350       -0.91499324834446
C            0.74569803943026        0.10060623415649       -0.71275853120413
C            1.24547692429086       -1.01293356249549       -0.02542898482308
C            2.59974597412074       -1.17125827788281        0.15518733930000
C            3.51345851756405       -0.23059292898481       -0.33386308161258
C            4.95242284220393       -0.40489279308948       -0.14571345869777
C            5.52041558426038       -1.69055728698006       -0.19159514444391
C            6.87098298175234       -1.90223548901963       -0.02491489333765
C            7.68254724650910       -0.79838754490934        0.21458875194340
C            7.13414529593214        0.50780340007712        0.24985047959624
C            5.77651889300512        0.69970735864488        0.06786642344293
C            8.23661429853276        1.40397768507866        0.47572338839420
C            8.33579247116923        2.78064493211990        0.62343917444786
C            9.58192864384635        3.33243273230006        0.85378705602216
C           10.71603121312282        2.52907168514184        0.94793134615727
C           10.64194469719381        1.15569028110417        0.80405539125379
C            9.39625769036742        0.59858321482132        0.55329612533912
N            9.04212041373551       -0.72851782822809        0.39510602778203
C            9.92554434487689       -1.82190514838860        0.41702735900319
C           11.04438600213958       -1.83047695105160       -0.41042454772583
C           11.91148163198647       -2.90775313282412       -0.38405464439442
C           11.66681295954185       -3.98111390591881        0.45726411728405
C           10.55100866121768       -3.97416205037936        1.27851803851427
C            9.68202263936890       -2.89813038545201        1.26495961708532
C            3.00524538633989        0.88345318822860       -1.01228679131029
C            1.65332928139349        1.04891506296910       -1.20202004049383
C           -1.43643663357046       -0.87180747695889       -1.08661299807799
C           -0.97242523618980       -1.97354479056259       -1.82405014685435
C           -1.80193354387709       -3.07677255423130       -1.98441804310044
C           -3.06882219509981       -3.09920930081853       -1.44922465327138
C           -3.55885752793580       -1.99088728006060       -0.72053957871461
C           -4.87514151771993       -1.97245226642868       -0.17913269835979
N           -5.30843791196827       -0.85039462543449        0.45070897567722
C           -6.53244992741440       -0.85340001335626        0.92215103225310
C           -7.01863310417750        0.35232630972676        1.58624081894379
C           -6.21073504644603        1.48862474785224        1.67328700119592
C           -6.67474420296972        2.62796567341674        2.29851155487145
C           -7.95015068207893        2.65396458675358        2.84573816561397
C           -8.75881227744803        1.52990713801490        2.76457953957504
C           -8.29981434593757        0.38701061306680        2.14023408535059
N           -7.37253037985892       -1.90426422556130        0.82710361541052
C           -6.88594729846321       -2.98976939467065        0.18900964434745
C           -7.75924557146004       -4.15021157254572        0.05672097781706
C           -9.05555626816053       -4.12281050793103        0.57574270041079
C           -9.87977518941626       -5.22348489921412        0.45213761861609
C           -9.42674694252619       -6.36649201223389       -0.19005757067463
C           -8.14009262171006       -6.40201902635376       -0.70985156313972
C           -7.31169347583492       -5.30522237345710       -0.58898653475198
N           -5.67616449376965       -3.05610974827426       -0.31546679046541
C           -2.70690991963504       -0.88754652525190       -0.53899036213688
C           -0.73294545031464        2.52180708897837       -0.05718239032528
C           -1.33369376830559        3.76159479351677       -0.04167737958694
C           -2.32258815215441        6.53040483780516       -0.71258067985967
C           -2.94424150462853        7.76468762987970       -0.68012170259628
H           -4.81009883363585        8.81727644706855       -0.73095472595268
H           -6.15804082778951        6.75770939190701       -0.93198386918978
H           -5.05836571847382        4.56431378994981       -0.99227101169912
H           -3.68629078869983        3.25639751453396       -2.41307067710744
H           -2.62368659099659        1.05034158287395       -2.44947189142230
H            0.55318994744985       -1.73434805038548        0.38230689732906
H            2.95776653775802       -2.02062616865868        0.71671204084101
H            4.88145852265783       -2.53560587146889       -0.39819080743002
H            7.28705972262745       -2.89591534444018       -0.09178494378202
H            5.35930793668729        1.69340983578248        0.11805631983850
H            7.45634142701875        3.40388222575170        0.56491926919326
H            9.68139134253093        4.40143940904601        0.97105484974640
H           11.67424091325436        2.98848237660803        1.14139853339347
H           11.52389480253465        0.53986005594798        0.89290591754347
H           11.22034089532879       -1.00023815658780       -1.07825603821188
H           12.77799322036124       -2.91155055203358       -1.02860634119208
H           12.34451422360404       -4.82138669737783        0.47276473668883
H           10.35939070258635       -4.80672056014961        1.93913984220920
H            8.82183629851466       -2.87890242694960        1.91753716474255
H            3.68675188672071        1.60771698549191       -1.43147828723068
H            1.28288929428055        1.89774607514961       -1.75726316242781
H            0.00494080921163       -1.94647626456981       -2.27940525225141
H           -1.44560499040385       -3.92399601251095       -2.55286898385295
H           -3.71535890552365       -3.95301217798748       -1.57840786674356
H           -5.22157514664413        1.45350927782173        1.24198581588388
H           -6.04270684951829        3.50226589939613        2.36230974663659
H           -8.31191854597701        3.54706394254957        3.33379659646379
H           -9.75183272402031        1.54713114619408        3.19067452019537
H           -8.91705664352392       -0.49583697879000        2.06923595602472
H           -9.39377955263707       -3.22576506960050        1.07210092031010
H          -10.88111611639895       -5.19296247737414        0.85752335408759
H          -10.07295552000506       -7.22673826277122       -0.28533557039805
H           -7.78506177582421       -7.29160960230784       -1.21034466850601
H           -6.30830673434084       -5.31779223941303       -0.98722562335514
H           -3.06424060328885       -0.05772668352482        0.05044333133335
H            0.08052551834225        2.30487912205449        0.61905783205946
H           -0.98390191360972        4.51007116379454        0.65319598786367
H           -1.24506155407803        6.47064559723640       -0.66734324831468
H           -2.35029071910780        8.66317737888081       -0.59399214167286
