  101
       -156.53912450
 C        -11.5086219553        3.0825454238        1.1310793487
 C        -10.7843848696        2.3871938667        2.0852318746
 C         -9.5397553134        1.8725558468        1.7755488403
 C         -8.9930428137        2.0500998530        0.5053371860
 C         -7.6703043263        1.5078130408        0.1765635990
 C         -7.2717577085        0.2542773312        0.6442862168
 C         -6.0327092844       -0.2618112825        0.3387393795
 C         -5.1380885682        0.4675647628       -0.4530369825
 N         -3.8952287148       -0.0331313944       -0.7759425256
 C         -2.7934760389        0.7976545826       -1.0164572919
 C         -2.4745359174        1.8624773135       -0.1734690221
 C         -1.2281835067        2.4488983792       -0.2512538101
 C         -0.2759680438        2.0049963131       -1.1712949499
 C          1.1246917623        2.4117406922       -1.0655093741
 C          1.4957508758        3.7047151901       -0.6674265224
 C          2.8102702468        4.0463534795       -0.4289223419
 C          3.7788130328        3.0596125660       -0.5696613224
 C          3.4303991027        1.7663983070       -1.0243345954
 C          2.1091062245        1.4473687622       -1.2717733714
 C          4.6482932603        1.0073861976       -1.0741212041
 C          4.9362029688       -0.3108802131       -1.3964473285
 C          6.2417441744       -0.7461778448       -1.2829955052
 C          7.2471456511        0.1109523802       -0.8426025337
 C          6.9831482213        1.4281453207       -0.5160641401
 C          5.6775458253        1.8763595421       -0.6489233882
 N          5.1368703888        3.1156323826       -0.3552276388
 C          5.8436610575        4.2176143227        0.1459307646
 C          5.3963164238        4.8708672490        1.2908595740
 C          6.0943140277        5.9583055631        1.7821204161
 C          7.2441509687        6.3956451789        1.1456143229
 C          7.6936075348        5.7429650965        0.0095820825
 C          6.9969179766        4.6605017204       -0.4949452927
 C         -0.6672515244        1.0468665835       -2.1126021378
 C         -1.9018300369        0.4500927472       -2.0360692877
 C         -3.5768858746       -1.4035022379       -0.7269676337
 C         -4.4344513192       -2.3894113843       -1.2315663379
 C         -4.0077925135       -3.7141483216       -1.2240260555
 C         -2.7581639718       -4.0697369264       -0.7690272777
 C         -1.8799312348       -3.0835459688       -0.2694032847
 C         -0.5444936560       -3.3523827941        0.1396303891
 N         -0.0304777006       -4.6026258381        0.0875136017
 C          1.2306249687       -4.7713485456        0.4028096801
 C          1.7968562351       -6.1124073218        0.3493938670
 C          3.1229564275       -6.3300579066        0.7269171702
 C          3.6577137160       -7.6015856068        0.6798434707
 C          2.8815486325       -8.6696769245        0.2558031396
 C          1.5627657166       -8.4596542609       -0.1215137925
 C          1.0207512497       -7.1918586584       -0.0762452467
 N          2.0391434145       -3.7600191757        0.7768465412
 C          1.4791605029       -2.5346545656        0.8441812452
 C          2.3074026811       -1.4145799114        1.2726914006
 C          1.7400542650       -0.1561448249        1.4858408534
 C          2.5246435175        0.8965912736        1.9083149261
 C          3.8843782221        0.7160008339        2.1151585210
 C          4.4565580445       -0.5281414326        1.8974798431
 C          3.6771821339       -1.5880181244        1.4819621093
 N          0.2263301456       -2.3104868423        0.5394852138
 C         -2.3398032046       -1.7591203302       -0.2197115992
 C         -5.5304866337        1.7278319778       -0.9208143730
 C         -6.7731335432        2.2319111539       -0.6109785318
 C         -9.7303283370        2.7544651355       -0.4455270819
 C        -10.9775432315        3.2625435689       -0.1354163864
 H        -12.4820220312        3.4821982643        1.3733300476
 H        -11.1911731803        2.2472899308        3.0761230636
 H         -8.9727648767        1.3480082912        2.5306055096
 H         -7.9523178864       -0.3285399123        1.2468843038
 H         -5.7360570351       -1.2259635897        0.7220998630
 H         -3.1725170642        2.1619842390        0.5947679916
 H         -0.9594513359        3.2077618796        0.4682680352
 H          0.7297484759        4.4582639146       -0.5582232869
 H          3.0747019869        5.0516008248       -0.1365844899
 H          1.8424454776        0.4438513176       -1.5633566495
 H          4.1516452147       -0.9805170706       -1.7130114728
 H          6.4889647398       -1.7686734824       -1.5254998697
 H          8.2560368510       -0.2629164316       -0.7475048954
 H          7.7663093656        2.0776560495       -0.1551391993
 H          4.5122223968        4.5117115046        1.7961149493
 H          5.7434301711        6.4610396037        2.6711231130
 H          7.7887144324        7.2426015500        1.5342764573
 H          8.5876093101        6.0829609505       -0.4915147860
 H          7.3311376482        4.1619269360       -1.3924191935
 H          0.0178565416        0.7558028011       -2.8937720404
 H         -2.1782159195       -0.3280475356       -2.7315671637
 H         -5.3917003828       -2.1174226939       -1.6483604081
 H         -4.6694574616       -4.4746280021       -1.6138216893
 H         -2.4273384397       -5.0955770259       -0.7935484800
 H          3.7121968371       -5.4883379750        1.0564646144
 H          4.6842553582       -7.7659495967        0.9753647303
 H          3.3020875181       -9.6640938005        0.2201639319
 H          0.9588891770       -9.2925119899       -0.4524137266
 H         -0.0031773137       -7.0119427188       -0.3654192723
 H          0.6816958607       -0.0253301661        1.3184683832
 H          2.0769109508        1.8666559114        2.0726463279
 H          4.4987437466        1.5418804490        2.4446087155
 H          5.5172652121       -0.6658478333        2.0494940275
 H          4.1089704189       -2.5614404879        1.3091983916
 H         -1.6884141691       -1.0170664331        0.2132708171
 H         -4.8517507657        2.2966772017       -1.5392291837
 H         -7.0522362081        3.2107633713       -0.9716971500
 H         -9.3310580730        2.8820839898       -1.4411239461
 H        -11.5393943800        3.8002785313       -0.8852178262
