101
 energy: -156.683218456185 gnorm: 0.000049215358 xtb: 6.7.1 (edcfbbe)
C           -4.27378702234003        7.76909888160657        0.81491577506966
C           -3.95320539882110        7.15563984580650       -0.38510873664151
C           -3.36320753728828        5.90510926417918       -0.39155433750984
C           -3.08876659698188        5.24248304955605        0.80357279742614
C           -2.46229691623719        3.91222780952462        0.79638494613501
C           -1.41959497402926        3.61689280766168       -0.08036637736634
C           -0.83543051129177        2.36719162532413       -0.09735019449256
C           -1.28106392812704        1.36739053829860        0.76651822967725
N           -0.69323457565359        0.09416621109332        0.74420249281511
C            0.69233358910850       -0.01697428205354        0.54730792636671
C            1.56472857197795        0.87610709007644        1.16761887909242
C            2.92612922594681        0.77076355997088        0.97208344819886
C            3.46233704200415       -0.22473428988078        0.15618042849848
C            4.91533821933493       -0.33502258523780       -0.03824350039853
C            5.43790997800942       -0.62159335735869       -1.30774114295640
C            6.79462192706974       -0.72371220278930       -1.53665674162673
C            7.65413328126742       -0.53574861496678       -0.46277414643200
C            7.14687020733128       -0.27198842447789        0.83093757745674
C            5.77990012234955       -0.16440828069030        1.03600598675035
C            8.28457352508540       -0.18393367260788        1.70385950413832
C            8.43085981478312        0.06699861330387        3.06224242158897
C            9.70408791992072        0.10314800774908        3.59533050966221
C           10.82398500963004       -0.09337354288885        2.78931461805058
C           10.70412809761540       -0.34389822262332        1.43559921273790
C            9.42593159244183       -0.40369345172112        0.89780821759540
N            9.03010336286945       -0.61337432128694       -0.40830775390427
C            9.88483857689799       -0.85799021866981       -1.49602173761254
C            9.78551864114311       -0.08659649185638       -2.65019104649240
C           10.63023491488154       -0.33071922613959       -3.71783243215330
C           11.58200587480528       -1.33444986170381       -3.64063521914021
C           11.68326508548201       -2.10129209666233       -2.49127120750031
C           10.83631499484060       -1.87103308236421       -1.42232918860416
C            2.58286705751893       -1.11153163660186       -0.46335550347771
C            1.21969970992254       -1.01134027413191       -0.27527605568611
C           -1.48196288907717       -1.04522878530789        0.87778109180488
C           -0.97877030722014       -2.20099246674175        1.48411243804119
C           -1.77065636806018       -3.32732663147920        1.61121668969705
C           -3.07658292289974       -3.32935279046984        1.15582591223329
C           -3.59319566207386       -2.18028544465092        0.55846443177437
C           -4.97729239571941       -2.14206744586375        0.08613508884170
N           -5.47595805695446       -0.96098795512985       -0.26938324815648
C           -6.74341994715820       -0.95953060823548       -0.67230543291209
C           -7.33587010613656        0.32238728933606       -1.05602519749272
C           -8.61820567361003        0.37154049897774       -1.60085684584248
C           -9.17381264108522        1.58638725887810       -1.95423925162220
C           -8.45928989729475        2.75975753261047       -1.76475289042207
C           -7.18316366918315        2.71739379117484       -1.22352287212810
C           -6.62071383637420        1.50538903349208       -0.87200020498736
N           -7.50334491637388       -2.05010845842708       -0.74073022835237
C           -6.92167127875549       -3.18897987772148       -0.37224243790866
C           -7.71593171938781       -4.41662877734070       -0.42969417539603
C           -9.07499952290006       -4.36125412649549       -0.73586517786124
C           -9.82207460990450       -5.52263675902947       -0.78314054294596
C           -9.22223769648084       -6.74649726176345       -0.52746916597539
C           -7.87040197440680       -6.80816228851369       -0.22454346057441
C           -7.11842268999478       -5.65019001168027       -0.17372131540329
N           -5.66271577752998       -3.28119619004529        0.04998887703209
C           -2.79517390365949       -1.05241018780978        0.41262233397407
C           -2.31668170351114        1.65945431609268        1.65414369326718
C           -2.89459976651720        2.91190003908001        1.66603864385532
C           -3.41964985303642        5.86768905506073        2.00435220840071
C           -4.00354707915592        7.12109475091437        2.00910968912346
H           -4.73173263173117        8.74754068296848        0.81961655638403
H           -4.16544221361098        7.65386355451235       -1.32043931601922
H           -3.13086639586424        5.42493277802430       -1.33139177517486
H           -1.05433420004148        4.38048828578405       -0.75124951314774
H           -0.02902525007852        2.15534458421194       -0.78419955874268
H            1.16562256915562        1.65387845164940        1.80238877343687
H            3.58605079868880        1.47972592877167        1.45024950396352
H            4.75532574373069       -0.74696240864172       -2.13541534636029
H            7.17215512825417       -0.95104796598644       -2.52231077198035
H            5.39183262337576        0.02339962280816        2.02589880210478
H            7.56402411649562        0.23350848840616        3.68441981911289
H            9.83970085330243        0.29425629345402        4.64988800825454
H           11.80823164016860       -0.04534073286625        3.23237058389351
H           11.57866988226643       -0.47908414074668        0.81711498945403
H            9.05525666195830        0.70762716787444       -2.69852282138495
H           10.55000448008641        0.27181269677809       -4.61074675677075
H           12.24334393254823       -1.51870399382229       -4.47396280603654
H           12.42028947352962       -2.88841492768881       -2.42844393845627
H           10.89896690186306       -2.47840493130685       -0.53142052469425
H            2.97308091231846       -1.89867565601421       -1.09168530432998
H            0.55183187911685       -1.70458193236796       -0.76635159591059
H            0.03414084256804       -2.20670365093851        1.85815608272485
H           -1.36499144077914       -4.20989658021252        2.08308402541117
H           -3.70726051768528       -4.19719735022597        1.26118826498961
H           -9.15906152113426       -0.55144876841364       -1.74133570416545
H          -10.16676587097013        1.62048484543139       -2.37761967718664
H           -8.89709884511976        3.70803491382367       -2.03930825020607
H           -6.62700819168487        3.63092284563536       -1.07373987063804
H           -5.62977265988430        1.45320234364395       -0.44876214395955
H           -9.52507292981827       -3.39981141143462       -0.92881005528859
H          -10.87500055119252       -5.47556380577823       -1.01858280467709
H           -9.80841255423668       -7.65277570135890       -0.56483826764143
H           -7.40335385077085       -7.76170515465592       -0.02697208170288
H           -6.06508032428062       -5.67781429882430        0.05847324720593
H           -3.21022545564912       -0.18233977096188       -0.07112600878716
H           -2.66789199500880        0.89528476160646        2.33261988799916
H           -3.70743079059370        3.11217699023890        2.34886618595004
H           -3.19715450224170        5.37495956079013        2.93991132864524
H           -4.24732876403261        7.59606271954525        2.94882153438641
