101
 energy: -156.683795844631 gnorm: 0.000044818471 xtb: 6.7.1 (edcfbbe)
C           -4.06622240719143        7.91100682242336       -0.62934262702733
C           -4.87103509479418        6.79189026453076       -0.76695259970210
C           -4.30734101727806        5.53000163302777       -0.80808944728870
C           -2.92708072700995        5.36405061809637       -0.70549220481228
C           -2.32948285306351        4.02178744884132       -0.74113967180468
C           -2.80429794792618        3.04997334723543       -1.62133589010093
C           -2.24989896784987        1.78773650393391       -1.65500756583532
C           -1.20574918184250        1.45064204824334       -0.79338641449282
N           -0.64676833611855        0.16513714152232       -0.81474645671005
C            0.73826022790922        0.01459375011333       -0.64749257072869
C            1.25545473741118       -1.02747322835259        0.12097724766463
C            2.61860651374440       -1.16958270499294        0.27778196036660
C            3.50970973369427       -0.27372550778990       -0.31230665415299
C            4.96151072114693       -0.42247098752511       -0.13982266587162
C            5.54700177665949       -1.69685209206090       -0.17162309848534
C            6.90471585608162       -1.88514615866265       -0.01647992586767
C            7.69987251607398       -0.76611596546272        0.19033192244783
C            7.13312215375506        0.52953014787064        0.20623552170991
C            5.76640674705526        0.69559196588902        0.04267208790889
C            8.22237629155032        1.44751381175752        0.39402600752799
C            8.30022280922612        2.82989356616295        0.50620238214967
C            9.53776600942084        3.40929828749955        0.70478076693858
C           10.68732957816890        2.62755820444414        0.80405008289860
C           10.63561176831377        1.25081477697463        0.69534850375037
C            9.39748437731509        0.66409502940298        0.47331109894431
N            9.06643093860181       -0.67065803162165        0.35056348681091
C            9.96716956395633       -1.74824952506262        0.37739877771665
C           11.07900337902803       -1.75040009429868       -0.45981372407039
C           11.96473844962318       -2.81218773783818       -0.42764089709535
C           11.74549748655973       -3.87956281098098        0.42796027510154
C           10.63640751411462       -3.88074152802254        1.25810567990557
C            9.75046026634803       -2.81875699990561        1.24002629970526
C            2.98326573906551        0.77102185760731       -1.07151247585717
C            1.62223185978465        0.91316684438840       -1.24331945615027
C           -1.46375068500310       -0.95032795071706       -0.98231007181284
C           -1.00108187079052       -2.08605495822262       -1.65461154352894
C           -1.82325452165799       -3.18541481543692       -1.82037896557379
C           -3.11916365856373       -3.17866853427107       -1.33744306551143
C           -3.59434389234873       -2.05041922810232       -0.66966888719430
C           -4.96553636655021       -2.00757892140115       -0.16124188191126
N           -5.40575568233876       -0.85563629773885        0.33860010495659
C           -6.66738009241193       -0.84608067454755        0.75949261633376
C           -7.19759443784729        0.40320059030108        1.30739669724691
C           -6.37671537124303        1.52509816581284        1.41904825010234
C           -6.87986958138762        2.70304255780339        1.93729768189385
C           -8.20357859711411        2.77424074355035        2.34452120324522
C           -9.02491659324726        1.66215025456731        2.23589187415534
C           -8.52675686526186        0.48050163023403        1.72145111101811
N           -7.47597531840097       -1.90211894860850        0.70955848656033
C           -6.94689280096326       -3.01833869922509        0.21465023886044
C           -7.79088734739379       -4.21251084736557        0.15892431794837
C           -9.13837439328750       -4.13758475973790        0.50907845770574
C           -9.93264925133672       -5.26677327299359        0.45397371434653
C           -9.39158253331279       -6.47891144063199        0.05276964147848
C           -8.05151535464939       -6.56038841170887       -0.29452351194714
C           -7.25265327223240       -5.43421442434399       -0.24345394664129
N           -5.69805930451076       -3.11539845565328       -0.23532135178982
C           -2.76569804828490       -0.95024395020259       -0.48678559517799
C           -0.72328226077080        2.41888994755205        0.08671202355249
C           -1.27426214076977        3.68344083686689        0.10500535554588
C           -2.12776595797006        6.49747503157701       -0.56613484365130
C           -2.69273718719695        7.75898804284250       -0.53155858870366
H           -4.50723046847191        8.89671946796061       -0.59970492060275
H           -5.94357035664051        6.90276914402798       -0.84092371506994
H           -4.94274199182210        4.66114491183948       -0.90282124899024
H           -3.60219115772399        3.29489556877216       -2.30705440094895
H           -2.62280451492100        1.05183331269279       -2.35281249013509
H            0.57884133042442       -1.72062661256253        0.60007379159087
H            2.99787848218258       -1.97219634753655        0.89308708328929
H            4.91617621446008       -2.55536481425659       -0.34941963469357
H            7.33417776808626       -2.87441865417288       -0.06819601568699
H            5.33214258711133        1.68346058863701        0.07539334089868
H            7.40799082837480        3.43511555051337        0.44429842098811
H            9.62021278740257        4.48282086079503        0.79297690028881
H           11.63978914048244        3.10857033291904        0.97375540516538
H           11.52968934098886        0.65280449722752        0.78860777566783
H           11.23560209005711       -0.92534273549033       -1.13900790494953
H           12.82598744793235       -2.80886902459666       -1.07953628436116
H           12.43739563571783       -4.70821873582090        0.44760668406483
H           10.46364326837770       -4.70852034331459        1.93014772154289
H            8.89507187214399       -2.80619486597848        1.89923800016563
H            3.65248461950065        1.46493029013742       -1.55856336062081
H            1.23218792002355        1.72036785595440       -1.84617475636751
H            0.00337011742717       -2.09597128601341       -2.05078323571163
H           -1.44981545843953       -4.05258807575821       -2.34451146652479
H           -3.77361189611754       -4.02441821371179       -1.47248869917168
H           -5.34935010293110        1.45246709527712        1.09736543906425
H           -6.23938824211916        3.56810033754579        2.02577456932285
H           -8.59470633896515        3.69646142489861        2.74805848196366
H          -10.05558979443310        1.71791937950864        2.55356495752239
H           -9.15053330414806       -0.39512084408844        1.63125429191489
H           -9.54234617099879       -3.18639925852994        0.81885873081188
H          -10.97619416948115       -5.20335616400809        0.72474498148220
H          -10.01417223502407       -7.36039185492305        0.01126025791636
H           -7.62997859602977       -7.50469501720678       -0.60579938835109
H           -6.20754581297186       -5.47909778757112       -0.50768253560979
H           -3.14854821741512       -0.09477075290816        0.04666225480392
H            0.08287002971493        2.16915561112283        0.76102762089267
H           -0.90133806565917        4.41197346500475        0.80981970094800
H           -1.05459987867827        6.38797405883141       -0.50584778779519
H           -2.05890790769042        8.62844082586800       -0.42977905174494
