  72
        -98.54044984
 C          3.1451077293        3.2802912527        1.5028624043
 C          1.9428376095        2.4191671066        1.2876286989
 C          1.8032092254        1.2165787099        1.9730267494
 C          0.7103659340        0.3980212004        1.7763442062
 C          0.5595022909       -0.8393033926        2.6024488292
 C         -0.2753295510        0.7379710800        0.8046552501
 B         -1.2981574157       -0.3279037900        0.3183888173
 C         -0.8388721331       -1.7281523379       -0.0726668978
 C         -1.7219973299       -2.8378863114       -0.0167163610
 C         -1.3099733233       -4.1334201032       -0.1608032892
 C          0.0408085441       -4.4221343860       -0.4152515483
 C          0.9355828942       -3.3775369854       -0.5313169461
 C          0.5301163418       -2.0538428677       -0.4024912513
 N          1.5041766374       -1.0659512841       -0.5737489829
 C          2.7300022434       -1.0390009215        0.0559328569
 C          3.2478393222       -1.8863397364        1.0274731959
 C          4.5100111967       -1.6149194182        1.5211524246
 C          5.2538434957       -0.5307626174        1.0594007805
 C          4.7492164613        0.3142898696        0.0871238145
 C          3.4822281774        0.0664306361       -0.4160107500
 C          2.6723942979        0.7094782272       -1.4125418028
 C          2.8738760621        1.7919490937       -2.2543753921
 C          1.8923355228        2.1039400425       -3.1773356014
 C          0.7345653168        1.3372820890       -3.2784768160
 C          0.5097703251        0.2585234505       -2.4432117883
 C          1.4720784968       -0.0341972963       -1.4905950789
 C         -2.8444507390        0.0256773557        0.2575204725
 C         -3.4701048256        0.6134957756        1.3716846148
 C         -2.7196647497        0.8834251305        2.6422194694
 C         -4.8226587416        0.9154263159        1.3438309750
 C         -5.6048783522        0.6584439445        0.2276666359
 C         -7.0709841382        0.9723017442        0.2224650612
 C         -4.9874134931        0.0876791303       -0.8725196199
 C         -3.6346121699       -0.2258029372       -0.8756841760
 C         -3.0675795559       -0.7568410846       -2.1619981489
 C         -0.2034247077        2.0362754086        0.2343321599
 C         -1.3058120112        2.5246487700       -0.6499183642
 C          0.9007522449        2.8288712243        0.4520519801
 H          3.2626812878        3.9919474969        0.6889754189
 H          4.0406528375        2.6655431119        1.5737756937
 H          3.0513222956        3.8415626419        2.4341798523
 H          2.5702852182        0.9224232385        2.6760924005
 H          0.6364110642       -1.7327216281        1.9868989213
 H          1.3231124144       -0.8815959358        3.3760814739
 H         -0.4237417309       -0.8622327013        3.0673213938
 H         -2.7612567549       -2.6320447989        0.1913656598
 H         -2.0195686964       -4.9441507442       -0.0775451836
 H          0.3675325185       -5.4407378088       -0.5530836318
 H          1.9664175964       -3.5775160595       -0.7900671858
 H          2.6875500200       -2.7324440895        1.3918237747
 H          4.9310381883       -2.2590029883        2.2788269883
 H          6.2384060321       -0.3542043820        1.4662697387
 H          5.3295040624        1.1494623510       -0.2755217971
 H          3.7826113711        2.3717901266       -2.1961659572
 H          2.0302280449        2.9427852927       -3.8432396753
 H          0.0005870742        1.5889629051       -4.0301466443
 H         -0.3783507823       -0.3419656273       -2.5299896957
 H         -3.2957545228        1.5278587370        3.3026756814
 H         -1.7634733400        1.3533039765        2.4315104407
 H         -2.5273555696       -0.0536742843        3.1652923982
 H         -5.2827828385        1.3511359561        2.2203519238
 H         -7.4291683583        1.1339626845       -0.7917504413
 H         -7.2786303108        1.8601563980        0.8160915030
 H         -7.6339685548        0.1421874657        0.6516436536
 H         -5.5695644507       -0.1036303640       -1.7637385582
 H         -3.8301374351       -1.2960270890       -2.7203336736
 H         -2.7272844437        0.0729448490       -2.7841751389
 H         -2.2333141679       -1.4230817018       -1.9783350189
 H         -2.2235989172        2.6453455236       -0.0777482988
 H         -1.0450459015        3.4772426960       -1.1053303733
 H         -1.5032873230        1.7970837407       -1.4315924783
 H          0.9736431923        3.7876155180       -0.0425422451
