77
 energy: -121.452417509330 gnorm: 0.000053260865 xtb: 6.7.1 (edcfbbe)
C            4.26156800895527        3.31971682819080        0.50939412177304
C            4.80282605896999        2.16157121374085        1.35471044494435
C            4.25383149391993        2.23529872992880        2.78266654013800
C            6.31377693392234        2.14514205055079        1.34648784431093
C            7.19183104745651        3.09501546507864        1.82016391941088
C            8.55658651591064        2.86506466548287        1.70113451220208
C            9.03369696942030        1.70108859615385        1.11497614586818
C            8.16001360458955        0.74114219928387        0.63534835127028
C            6.79552182918210        0.96618956898560        0.75298495877054
C            5.66701012435762        0.15388382862696        0.34996176177178
C            5.63562473377006       -1.08914044476317       -0.26546418206987
C            4.39155249404004       -1.62875267898354       -0.54314044462856
C            3.96792813178109       -2.86239401483717       -1.15171644274240
C            4.64510524669163       -3.94678794291017       -1.68665505703521
C            3.90782607623637       -4.98768449883464       -2.22466738636648
C            2.51698050391219       -4.94793152809465       -2.24453886283863
C            1.81903255541004       -3.87567500057047       -1.71761468968621
C            2.55416265173746       -2.84133625197680       -1.15846641712218
N            2.11452328002410       -1.66386688206698       -0.58451294165969
C            0.77332911991493       -1.28317303071692       -0.44927882793079
C           -0.14279457273629       -2.12633463785211        0.18731951179274
C           -1.45836848805571       -1.76630718629889        0.31951353039246
C           -1.92743577818848       -0.52841401701867       -0.18356246700231
C           -3.28667743005585       -0.14981186180335       -0.04811990191052
N           -3.71231059207604        1.03901939122943       -0.54642205572646
C           -4.96733076119108        1.36866677622673       -0.40833160324146
C           -5.43363891715353        2.64616293537071       -0.93127444967813
C           -4.54921480003091        3.50689961267852       -1.58256978828348
C           -4.99693985035437        4.71525497358077       -2.07625667340161
C           -6.32707649820409        5.07983585597005       -1.92737534200266
C           -7.21048786441081        4.22910038939067       -1.28091925115828
C           -6.77010968065970        3.01841369416155       -0.78445806330299
N           -5.86158133847250        0.56448447770430        0.20166722339291
C           -5.40999768773077       -0.61276912465529        0.68181009306758
C           -6.36129510607124       -1.49760317329539        1.34056554638775
C           -5.94089989942456       -2.72038175636460        1.86560100652670
C           -6.84695660828905       -3.55509889019117        2.48713746332146
C           -8.17934848257140       -3.18345121765251        2.59291172842994
C           -8.60320595002808       -1.97006601479757        2.07320143390925
C           -7.70258526350979       -1.12938209122598        1.45014894667943
N           -4.16086638925528       -0.97671523827958        0.57785991083114
C           -1.00880585008472        0.31871526355000       -0.82829471648769
C            0.31649557127670       -0.04743437770927       -0.96601854935115
C            1.19375986591430        0.80684241010022       -1.66939111282315
N            1.88914774758030        1.50967870661371       -2.25216306146193
C            3.20504383499493       -0.92389612330702       -0.20632322910837
C            3.23951951409707        0.30772241605712        0.44777252405882
C            4.47967543867945        0.83620029942341        0.70414882486528
H            4.65178927757047        3.25912753753006       -0.50379034288864
H            3.17657280087037        3.27581682137417        0.45959870607978
H            4.55548969326591        4.27301151524489        0.94217757886827
H            3.16783654718775        2.18329211933282        2.77228306188362
H            4.55189399386065        3.16913155243137        3.25312988422695
H            4.63684682718201        1.40857827582501        3.37756373849117
H            6.83310343590462        4.00563733313739        2.27717359837320
H            9.25584181855080        3.60160486165356        2.06886558446882
H           10.09940042869652        1.54490735815225        1.03282872858462
H            8.53273856103810       -0.16343216071177        0.17862741406452
H            6.54217583485595       -1.61571572658426       -0.52020992279079
H            5.72404693784772       -3.97474350398288       -1.68644521478988
H            4.41739068731836       -5.84186595464128       -2.64453369864194
H            1.97027553974610       -5.76862493887927       -2.68405065171995
H            0.74075436257203       -3.84234123192440       -1.75047346446548
H            0.21267049208626       -3.06196524048125        0.59439648814967
H           -2.16178984957748       -2.41432331200358        0.81716569453106
H           -3.51771888624391        3.20960457321631       -1.69168474464541
H           -4.30938573324442        5.37859906984607       -2.58027996047683
H           -6.67426938548351        6.02622816038873       -2.31518313504512
H           -8.24618377559833        4.51370208805188       -1.16534294050417
H           -7.44563932240616        2.34563765142633       -0.27891838862563
H           -4.90135336476467       -2.99520787880868        1.77557274764558
H           -6.51796176175036       -4.50086247744611        2.89254902574082
H           -8.88597367418449       -3.83928920704297        3.07990417785660
H           -9.64091395919217       -1.68133703015444        2.15570359855480
H           -8.01762219218250       -0.18214867024477        1.04032073119579
H           -1.35608907461601        1.25912581586951       -1.22800429175798
H            2.33300368521054        0.81694431635188        0.73609169058801
