77
 energy: -121.524520887215 gnorm: 0.000042983902 xtb: 6.7.1 (edcfbbe)
C            4.26162946009615        3.33962091854836        0.33315228931354
C            4.77773972373383        2.21973671416395        1.24291687230103
C            4.19694720089318        2.36153260152603        2.65289304659585
C            6.28905214182938        2.19708719313934        1.27027423992355
C            7.15948222421184        3.16597007853397        1.72014001300992
C            8.52537211279968        2.92723741482360        1.64443073856938
C            9.00917232916444        1.73682384493467        1.12481769282780
C            8.14085776753707        0.75801579417985        0.66961444302641
C            6.77782002667324        0.99264460706732        0.74472589635759
C            5.64957228343537        0.16376254767546        0.35300488915444
C            5.61999176590072       -1.10374290995061       -0.19637263502187
C            4.37330329677188       -1.64817327082757       -0.47623129129769
C            3.96108366308292       -2.91688109308252       -1.01294338933095
C            4.65675973087031       -4.02526618306012       -1.47530237072883
C            3.94013667126875       -5.10092050644652       -1.96228058058069
C            2.54924477163562       -5.07231619430765       -2.00868331031663
C            1.83469071738773       -3.97859529223625       -1.55524771116873
C            2.54945730148553       -2.90942474022362       -1.03851595325804
N            2.09371105419536       -1.69270728308916       -0.55529319984924
C            0.76190262968868       -1.31179911881231       -0.45188446807401
C           -0.16512298415800       -2.15487699027511        0.16221773800489
C           -1.48628968578652       -1.78306863598318        0.28098511421198
C           -1.92272456535535       -0.55061614034219       -0.20910832779558
C           -3.32289744269473       -0.14982243389066       -0.07021055211577
N           -3.67077466540134        1.05010073614021       -0.52193232895216
C           -4.95311254333516        1.37636708594781       -0.37618817629953
C           -5.38785614468152        2.68543462295415       -0.86040423159355
C           -4.47142368436795        3.55502335254198       -1.44928704622880
C           -4.88583003979091        4.79114867735897       -1.90516344781928
C           -6.21340347341876        5.16971241976270       -1.77825130890691
C           -7.12902819811247        4.30838812296970       -1.19345683308460
C           -6.72145118835945        3.07081740900398       -0.73544712629191
N           -5.85964139584501        0.58189321059052        0.18535173760005
C           -5.42321320561608       -0.59944568172208        0.61110517362318
C           -6.38623641738909       -1.50323484325546        1.23888434818669
C           -5.98231352899930       -2.76111050606756        1.68268222221454
C           -6.89488864450034       -3.61067259042895        2.27686241336939
C           -8.21410595444325       -3.21445458714340        2.43360585989404
C           -8.62113854942812       -1.96436293846296        1.99360065413514
C           -7.71379349481902       -1.11009706544161        1.39816915731808
N           -4.16081948719171       -1.00825526445905        0.50121537311387
C           -1.01496510537782        0.29557986590936       -0.83293505004488
C            0.31853845750880       -0.07679537229087       -0.96456607848251
C            1.18932229810552        0.78077523805743       -1.67714364944072
N            1.85354417115438        1.48894230757234       -2.28690296575421
C            3.19181202188122       -0.92048320728171       -0.20854054678661
C            3.22163382529046        0.33398832574222        0.38836588111502
C            4.46316549210633        0.86694387490244        0.64704469441378
H            4.67717446968407        3.23139547843317       -0.66591847039259
H            3.17774575648688        3.29745270462776        0.25793282705747
H            4.54921226155644        4.31087949804954        0.72897341511610
H            3.11090572574243        2.31234386150840        2.62167074846828
H            4.48850236944657        3.31523093298211        3.08641382648406
H            4.56390019924185        1.56207304912075        3.29345550879741
H            6.79328563681988        4.09804894744139        2.12586642527867
H            9.21896177720983        3.67814899107239        1.99404458528837
H           10.07579719303984        1.57181847050608        1.07445745495385
H            8.52074116785222       -0.16811605848892        0.26434375791039
H            6.52470890668124       -1.65526811565069       -0.39956050585902
H            5.73581304251931       -4.03888854757106       -1.45823805708464
H            4.46225502573021       -5.97405405422951       -2.32395462122145
H            2.01528323807274       -5.92001228819110       -2.41169938126854
H            0.75690893796280       -3.95998700076788       -1.61730442389842
H            0.17634975394146       -3.09535967207173        0.56778822334293
H           -2.20087918752753       -2.42887761126215        0.76579489489810
H           -3.44241678504245        3.24493395318095       -1.54023699587973
H           -4.17413132565790        5.46340985447067       -2.36133819753346
H           -6.53490741880443        6.13705939047614       -2.13564390527121
H           -8.16285060778160        4.60572280476208       -1.09597595826526
H           -7.41951248608401        2.38745752204190       -0.27822096048067
H           -4.95218400953068       -3.05298647591055        1.55231446951136
H           -6.58030766823165       -4.58534210910837        2.62018081612746
H           -8.92569415450951       -3.88063670488232        2.89913624598729
H           -9.64953019046687       -1.65795487126343        2.11683084173301
H           -8.01196577689388       -0.13377276484151        1.05013096473480
H           -1.35570602858385        1.24101812289447       -1.22577996615178
H            2.31743940891517        0.86636189161755        0.64216954061196
