77
 energy: -121.524488356950 gnorm: 0.000034943233 xtb: 6.7.1 (edcfbbe)
C            4.20979550044266        3.13992264682319        0.29315347063463
C            4.71552235276393        1.96831938781118        1.14143339180846
C            4.16173379482659        2.05760225539681        2.56655077245411
C            6.22621836835902        1.91139676200739        1.14148633450930
C            7.12573494513314        2.83959359933242        1.61908638371291
C            8.48441724902490        2.57433105981430        1.50942751234843
C            8.93247079973923        1.39805119400559        0.92911648545816
C            8.03477422360201        0.46015203071030        0.44569186745617
C            6.67885859219139        0.72131657715326        0.55452401451953
C            5.52586932437239       -0.06419794537649        0.14600818277433
C            5.45898345184496       -1.30533980922455       -0.45752823236443
C            4.19600297987424       -1.81031792073622       -0.73808715785142
C            3.74686266480736       -3.04591018422798       -1.32037372920839
C            4.40971122736962       -4.14773264961158       -1.84280642877864
C            3.66107811597981       -5.18632503431542       -2.36104654784453
C            2.27047667513954       -5.12697872993988       -2.37889196302734
C            1.58828843203055       -4.03906852567617       -1.86564833729011
C            2.33554461742604       -3.00794724497131       -1.31843353676958
N            1.91514029081839       -1.80360982262183       -0.77584140072875
C            0.59295041019080       -1.40236809519866       -0.63145065839364
C           -0.33691048978988       -2.25255549660420       -0.03171730544207
C           -1.64966016707548       -1.86490670973330        0.12330748630224
C           -2.07526443748617       -0.61051863936195       -0.31828422117048
C           -3.46903299953009       -0.19895488941588       -0.14867875044606
N           -3.83177033788989        0.98042199130632       -0.64087311935805
C           -5.11011277473344        1.31166873750105       -0.47208602635730
C           -5.56504509074175        2.59229844297016       -1.01069538270166
C           -4.68218267296251        3.41199803369429       -1.71172313326092
C           -5.11733274612955        4.61925211469828       -2.22243424440676
C           -6.43212108247224        5.01858435416480       -2.03871802223507
C           -7.31416703471621        4.20717075106890       -1.34169288882640
C           -6.88588811621856        2.99848074511160       -0.82879647016830
N           -5.99652290208482        0.54536296036592        0.15676277447697
C           -5.54488916355860       -0.61454882631638        0.62345657453189
C           -6.48405221192529       -1.48611631822413        1.32816357024367
C           -6.05113861289180       -2.69938526113144        1.86011268577173
C           -6.94087982012271       -3.51907282454441        2.52644889241466
C           -8.26611166316759       -3.13734379945556        2.66762890828655
C           -8.70186494366069       -1.93148579607638        2.14033339398612
C           -7.81729317439125       -1.10697200202234        1.47299907152012
N           -4.28755428938778       -1.03059183943658        0.48685370599851
C           -1.16433602039378        0.24435278724655       -0.92528597813151
C            0.16173101261383       -0.14197586044063       -1.08950595948013
C            1.03623768214360        0.72996532720335       -1.77967906103134
N            1.70414726680153        1.45177586204093       -2.36907156307996
C            3.03560259400783       -1.06987086851677       -0.41789785595476
C            3.10326660472721        0.15704913268660        0.23095419511855
C            4.36056288038845        0.65110006187434        0.49092990519317
H            4.60688941572969        3.06943657004321       -0.71673940088806
H            3.12417422308280        3.12443357074982        0.23452985294170
H            4.52502337020697        4.08538627976911        0.72841615576435
H            3.07442648431278        2.03683118609784        2.55218134287357
H            4.48468888797753        2.98217773969677        3.03914004135748
H            4.51862579784837        1.21986914918754        3.16233290417160
H            6.78759519288330        3.76038486924233        2.07217699785401
H            9.20054475238398        3.29323515514519        1.88023857010082
H            9.99409406622766        1.21188931717595        0.85325141418877
H            8.38675181945438       -0.45505393510798       -0.00684461685433
H            6.34770639895511       -1.86670933841303       -0.70045097501154
H            5.48834659948789       -4.18456771581546       -1.84732386404736
H            4.15738565681213       -6.05376530270889       -2.76970769958272
H            1.71092638698637       -5.94543214710256       -2.80686912223726
H            0.51015288656665       -3.99549407741334       -1.90538521497491
H           -0.00385696343798       -3.21267774660553        0.33279619829700
H           -2.36655694327298       -2.51700118910538        0.59612358462499
H           -3.66315722046608        3.08557004193468       -1.84717524986283
H           -4.43195173529704        5.25253115678805       -2.76626106688012
H           -6.76994429211330        5.96309268310094       -2.43951503550220
H           -8.33803568697998        4.52067441668664       -1.19985478960154
H           -7.55761136802126        2.35417263315494       -0.28382960934791
H           -5.01634941041657       -2.97977897077592        1.74201724439566
H           -6.60366457628926       -4.45891050779631        2.93851144560626
H           -8.95994373856665       -3.78027231397668        3.18926329196023
H           -9.73489735870964       -1.63635888526667        2.25165142031681
H           -8.13816329793517       -0.16558725504360        1.05576032672092
H           -1.49633948909859        1.20850942111715       -1.27814332343495
H            2.21528983638705        0.69734347344514        0.52252357183794
