  47
  -78.8083064000000       8.459016344439624E-002 !
 C          7.6407156830       -0.7022564460        0.9516126693
 N          6.2082036442       -0.6506047629        0.8606626582
 C          5.2896462854       -1.3134250708        1.6194667244
 N          4.0551098470       -1.0673166832        1.3025820960
 C          4.1211208824       -0.1787488531        0.2587217607
 C          3.1807959995        0.4853204684       -0.5418056353
 C          1.7369290174        0.3486787284       -0.4039350712
 C          0.8896799954        1.0343400051       -1.2772760933
 C         -0.4779277907        0.9193495242       -1.1590035767
 C         -1.0285053346        0.1168520570       -0.1606568806
 N         -2.4273463824        0.0026340715       -0.0346439130
 C         -3.0574344290       -1.2336704057       -0.1904617536
 C         -2.3581034026       -2.3876685922       -0.5219942881
 C         -3.0157819636       -3.5992159317       -0.6718139607
 C         -4.3831479256       -3.6772604457       -0.5046548356
 C         -5.1008275921       -2.5280322215       -0.2072042646
 C         -4.4505234217       -1.3172446074       -0.0592657965
 O         -5.2338849016       -0.2199365199        0.2002805742
 C         -4.6003278446        0.9902127364        0.3390555246
 C         -5.3987548703        2.0866597930        0.6058825383
 C         -4.8305997399        3.3380897899        0.7940895268
 C         -3.4589323799        3.4769327051        0.7331681721
 C         -2.6537281472        2.3807803281        0.4634687687
 C         -3.2090661664        1.1272045975        0.2375018200
 C         -0.1864101583       -0.5696662189        0.7119144004
 C          1.1829255806       -0.4574561183        0.5921775238
 N          3.6440622700        1.3005708219       -1.4943360436
 C          4.9428457851        1.4627190555       -1.6583357837
 N          5.9262073377        0.9018686070       -0.9743752371
 C          5.4841122625        0.0873621741       -0.0250962158
 H          7.9725282245       -0.3742992724        1.9383716820
 H          7.9983369980       -1.7181880531        0.7741656467
 H          8.0454517411       -0.0361884631        0.1912498356
 H          5.5795570539       -1.9792708709        2.4096380335
 H          1.3317738113        1.6466965062       -2.0467161847
 H         -1.1334052544        1.4422089733       -1.8398538251
 H         -1.2915731733       -2.3382803202       -0.6723825951
 H         -2.4449259512       -4.4798999628       -0.9234188851
 H         -4.8987172527       -4.6180177690       -0.6147129993
 H         -6.1724197791       -2.5490868197       -0.0907311970
 H         -6.4650111787        1.9384954209        0.6680175304
 H         -5.4618292696        4.1884079687        0.9980573118
 H         -2.9992649383        4.4392328510        0.8983764043
 H         -1.5826400021        2.5006052459        0.4359623336
 H         -0.6175394338       -1.1843080453        1.4882853579
 H          1.8376535621       -0.9826428478        1.2689967959
 H          5.2409793160        2.1385042850       -2.4490431810
  47
  -78.8083050600000       8.447030119270331E-002 !
 C          7.6276079032       -0.4948190232       -1.1506074838
 N          6.1961480318       -0.4680558729       -1.0342048716
 C          5.2684294054       -0.9811716833       -1.8906811931
 N          4.0378764356       -0.8044968108       -1.5166759049
 C          4.1167162445       -0.1265965398       -0.3263905424
 C          3.1869005770        0.3745047898        0.5956288203
 C          1.7411689743        0.2658050972        0.4518243256
 C          1.1740040388       -0.3448770997       -0.6682143755
 C         -0.1968168275       -0.4333031349       -0.7904691879
 C         -1.0275377033        0.0833345244        0.2019210297
 N         -2.4280774749       -0.0060012528        0.0734121220
 C         -3.0576432641       -1.2499896774        0.0024282212
 C         -2.3572180062       -2.4443913265        0.1168953842
 C         -3.0137479770       -3.6635018222        0.0417371743
 C         -4.3810925930       -3.7106398984       -0.1366110572
 C         -5.0999835522       -2.5269373031       -0.2175551998
 C         -4.4508769450       -1.3091920460       -0.1401500149
 O         -5.2350257233       -0.1833198841       -0.1905568092
 C         -4.6011142593        1.0322397682       -0.1151338392
 C         -5.3996763313        2.1586069496       -0.1815972723
 C         -4.8312574303        3.4236897814       -0.1480002132
 C         -3.4593409449        3.5495515074       -0.0682002619
 C         -2.6539666115        2.4228829315        0.0016219371
 C         -3.2095197077        1.1491837310        0.0048341101
 C         -0.4639887936        0.6908279011        1.3229301081
 C          0.9053087175        0.7811304198        1.4448925707
 N          3.6625423150        0.9977360174        1.6778753878
 C          4.9632025612        1.1296512827        1.8528967027
 N          5.9375850457        0.7110958915        1.0624463387
 C          5.4830351045        0.0874437835       -0.0160122295
 H          7.9913783445       -1.5234192325       -1.1613765397
 H          7.9453864284        0.0053936722       -2.0666069841
 H          8.0396883568        0.0270640037       -0.2889110790
 H          5.5481145592       -1.4874410289       -2.7948537544
 H          1.8196863421       -0.7386676728       -1.4367298091
 H         -0.6378645232       -0.8958631138       -1.6610706675
 H         -1.2906689861       -2.4224834095        0.2732187343
 H         -2.4423455269       -4.5745342849        0.1303793604
 H         -4.8960651910       -4.6558819674       -0.2031587288
 H         -6.1717184181       -2.5278409253       -0.3358588598
 H         -6.4663031822        2.0235261814       -0.2642698031
 H         -5.4624882546        4.2965993120       -0.1976917722
 H         -2.9994320268        4.5259131429       -0.0637824887
 H         -1.5826771570        2.5358740590        0.0468307447
 H         -1.1102191320        1.0827020137        2.0945147694
 H          1.3568427746        1.2424398897        2.3084447832
 H          5.2716244498        1.6445746897        2.7529184024
  47
  -78.8083017700000       8.417673245205683E-002 !
 C          7.6024178248        0.9936365101       -0.9945783451
 N          6.1735688778        0.8849687819       -0.8977276796
 C          5.2268800737        1.4760245340       -1.6807420451
 N          4.0043739200        1.1840868952       -1.3558865540
 C          4.1093482035        0.3369128745       -0.2811590159
 C          3.1993246205       -0.3422474861        0.5415903736
 C          1.7507064347       -0.2770017295        0.3999591241
 C          1.1605439651        0.4840496347       -0.6107657466
 C         -0.2126962646        0.5357489814       -0.7275884927
 C         -1.0224253872       -0.1685686261        0.1612558840
 N         -2.4256339174       -0.1085600006        0.0423109590
 C         -3.1674810322       -1.2623343667       -0.2176962061
 C         -2.5687282908       -2.4979912891       -0.4308459477
 C         -3.3352937454       -3.6238123130       -0.6910866514
 C         -4.7108130552       -3.5329709584       -0.7546585932
 C         -5.3224187573       -2.3005875844       -0.5767908890
 C         -4.5627617051       -1.1748285165       -0.3190479820
 O         -5.2381899208        0.0133232457       -0.1885316738
 C         -4.4939961445        1.1392570138        0.0633193395
 C         -5.1863043705        2.3271556785        0.2067110555
 C         -4.5086217061        3.5027391980        0.4950625138
 C         -3.1384328253        3.4744208128        0.6564416729
 C         -2.4389590258        2.2859435956        0.5117161351
 C         -3.0985633738        1.1058381668        0.1907620858
 C         -0.4359142892       -0.9304377582        1.1706931509
 C          0.9357111857       -0.9836363018        1.2872472874
 N          3.6981383089       -1.1008781092        1.5224858323
 C          5.0026634853       -1.1946599658        1.6941242757
 N          5.9601972315       -0.6122229465        0.9917428328
 C          5.4826982030        0.1451392965        0.0128688451
 H          7.9116167817        2.0375715144       -0.9171894119
 H          8.0348599796        0.4223529823       -0.1746199757
 H          7.9534692075        0.5868745541       -1.9454055806
 H          5.4872394052        2.1265937508       -2.4936484739
 H          1.7905858795        1.0235236855       -1.2997291916
 H         -0.6721592687        1.1176817451       -1.5129479421
 H         -1.4940073378       -2.5800274981       -0.4015064094
 H         -2.8425835584       -4.5711886078       -0.8469928397
 H         -5.3120587379       -4.4062597512       -0.9520983318
 H         -6.3932205964       -2.1904025982       -0.6399540629
 H         -6.2584536410        2.3097200054        0.0943239773
 H         -5.0569170490        4.4251326672        0.6023644962
 H         -2.5981759293        4.3761431647        0.9010456660
 H         -1.3706869468        2.2751269606        0.6576550229
 H         -1.0667539524       -1.4690313577        1.8624699312
 H          1.4055904030       -1.5612997921        2.0670404793
 H          5.3301760468       -1.8258037356        2.5097210160
  47
  -78.8082996200000       8.398543806756846E-002 !
 C          7.6046329366        1.0015950694       -0.9782750219
 N          6.1753824699        0.8943667750       -0.8833163997
 C          5.2296693191        1.5052985135       -1.6522404345
 N          4.0066319198        1.2103652492       -1.3323079456
 C          4.1101804238        0.3399464020       -0.2762453053
 C          3.1989965663       -0.3526715253        0.5337362187
 C          1.7503938228       -0.2788821616        0.3959322272
 C          1.1617279734        0.4911125655       -0.6087143302
 C         -0.2115303651        0.5472194485       -0.7247070549
 C         -1.0224817114       -0.1616636156        0.1592580182
 N         -2.4255754267       -0.1023566688        0.0400579272
 C         -3.1642135051       -1.2570460507       -0.2254567000
 C         -2.5610802641       -2.4876586950       -0.4545993439
 C         -3.3241269237       -3.6148266783       -0.7194013588
 C         -4.7005048047       -3.5302275327       -0.7716361635
 C         -5.3166377024       -2.3023777079       -0.5787218371
 C         -4.5605289386       -1.1752110482       -0.3167410562
 O         -5.2403207539        0.0087889504       -0.1715903825
 C         -4.4983983865        1.1372923066        0.0761518006
 C         -5.1943888202        2.3223223777        0.2250145919
 C         -4.5197263788        3.5001445620        0.5111901040
 C         -3.1486008562        3.4766601623        0.6653725841
 C         -2.4452983046        2.2910749281        0.5148254430
 C         -3.1020691761        1.1090194133        0.1953838090
 C         -0.4373712577       -0.9303881786        1.1644492545
 C          0.9340544307       -0.9878912708        1.2800631751
 N          3.6965140247       -1.1331829061        1.4980388179
 C          5.0009550752       -1.2356614960        1.6654708256
 N          5.9595653721       -0.6423637250        0.9737379969
 C          5.4832311083        0.1373028942        0.0119063396
 H          7.9554388243        0.6069366975       -1.9340106016
 H          7.9153305434        2.0437450776       -0.8866253553
 H          8.0356533426        0.4187436020       -0.1656125052
 H          5.4913641904        2.1723631505       -2.4512225674
 H          1.7927324609        1.0334924090       -1.2944250763
 H         -0.6694181735        1.1351096525       -1.5064648903
 H         -1.4857734415       -2.5648206471       -0.4337925529
 H         -2.8275878325       -4.5580158643       -0.8880575242
 H         -5.2989200156       -4.4046946096       -0.9723732071
 H         -6.3882857769       -2.1963707880       -0.6330937987
 H         -6.2672049398        2.3004649296        0.1188627459
 H         -5.0708205923        4.4204510824        0.6228256267
 H         -2.6106010599        4.3799272150        0.9087615298
 H         -1.3763772346        2.2841091129        0.6556042018
 H         -1.0696436129       -1.4729723105        1.8518533461
 H          1.4029077605       -1.5749953204        2.0534990398
 H          5.3275059653       -1.8870803495        2.4652717187
  47
  -78.8082995300000       8.397743988224886E-002 !
 C          7.6295062805       -0.4457913347       -1.1649795711
 N          6.1985403490       -0.4326115652       -1.0422922551
 C          5.2726900757       -0.9308853673       -1.9102691046
 N          4.0416731506       -0.7687528624       -1.5317975410
 C          4.1180242635       -0.1172349272       -0.3263340424
 C          3.1856985352        0.3590446068        0.6063458060
 C          1.7405494983        0.2473126755        0.4588201597
 C          1.1774470982       -0.3534185469       -0.6685357371
 C         -0.1930677663       -0.4410326692       -0.7963277148
 C         -1.0267411985        0.0671834470        0.1976759474
 N         -2.4272087798       -0.0154512675        0.0623388780
 C         -3.0647376764       -1.2553562911       -0.0094403713
 C         -2.3706501215       -2.4546848068        0.0929407724
 C         -3.0360313881       -3.6692009690        0.0216238280
 C         -4.4057857501       -3.7068908886       -0.1413458630
 C         -5.1175795166       -2.5183068157       -0.2126498125
 C         -4.4595263118       -1.3048728304       -0.1399136903
 O         -5.2367347143       -0.1737938099       -0.1834860709
 C         -4.5945273286        1.0375797374       -0.1108084744
 C         -5.3854048618        2.1696668223       -0.1721979906
 C         -4.8078727165        3.4305483376       -0.1392006536
 C         -3.4348585748        3.5467742548       -0.0641435124
 C         -2.6371153134        2.4144535561        0.0000484175
 C         -3.2016209026        1.1447794584        0.0022392227
 C         -0.4671642860        0.6630822431        1.3270155466
 C          0.9015333124        0.7521003219        1.4547785159
 N          3.6581521478        0.9613324673        1.7019874787
 C          4.9583209894        1.0951583574        1.8800859839
 N          5.9347133423        0.6984232201        1.0809907473
 C          5.4835002660        0.0967211419       -0.0118464307
 H          8.0431304886        0.0286763364       -0.2766276446
 H          7.9968828264       -1.4708626335       -1.2361930516
 H          7.9417079173        0.1077732206       -2.0523338989
 H          5.5547207138       -1.4140033966       -2.8261985358
 H          1.8259072302       -0.7382296010       -1.4392243589
 H         -0.6313384725       -0.8959238965       -1.6723406731
 H         -1.3023871177       -2.4398271462        0.2381178191
 H         -2.4697568086       -4.5846058384        0.0988819496
 H         -4.9276189430       -4.6487381625       -0.2021116075
 H         -6.1905558678       -2.5113693335       -0.3191920332
 H         -6.4532592727        2.0426767096       -0.2511502511
 H         -5.4332392062        4.3080522514       -0.1839343514
 H         -2.9683720308        4.5198754780       -0.0582618122
 H         -1.5647995921        2.5194982661        0.0411462631
 H         -1.1168146558        1.0478561823        2.0993254995
 H          1.3507438372        1.2049563181        2.3240303746
 H          5.2641910391        1.5923457111        2.7911217826
  47
  -78.8082949700000       8.357319389391728E-002 !
 C          7.5959931180        0.9672563207       -1.0318749908
 N          6.1676481126        0.8690048719       -0.9161068078
 C          5.2167851694        1.4737294102       -1.6837361969
 N          3.9958515890        1.1903702691       -1.3464602267
 C          4.1063594538        0.3348789147       -0.2790729923
 C          3.1998010120       -0.3417414528        0.5492364465
 C          1.7505619955       -0.2645890366        0.4210957558
 C          1.1586711714        0.5010160458       -0.5853388134
 C         -0.2145441287        0.5561492956       -0.6978076805
 C         -1.0230231692       -0.1495886885        0.1911414578
 N         -2.4259828618       -0.0984918763        0.0668265981
 C         -3.1562327198       -1.2568766400       -0.2069626310
 C         -2.5469355364       -2.4896977742       -0.4062096654
 C         -3.3022835908       -3.6203124487       -0.6779864164
 C         -4.6768118039       -3.5372130965       -0.7677130092
 C         -5.2981460151       -2.3076736893       -0.6050551723
 C         -4.5496712334       -1.1770454814       -0.3356997863
 O         -5.2340036133        0.0078563436       -0.2225741918
 C         -4.5011499886        1.1378065911        0.0450607040
 C         -5.2025062724        2.3218766377        0.1748986828
 C         -4.5370593180        3.5006356524        0.4782499191
 C         -3.1702920696        3.4794932154        0.6678353183
 C         -2.4615982388        2.2950465107        0.5360677079
 C         -3.1084917707        1.1118073152        0.2008749679
 C         -0.4351361316       -0.9098587803        1.2008018775
 C          0.9369693125       -0.9667855915        1.3127945220
 N          3.7027466042       -1.1107872190        1.5196432916
 C          5.0083854508       -1.2170837554        1.6754515672
 N          5.9629919416       -0.6390967461        0.9657742688
 C          5.4813368083        0.1291508485       -0.0027180942
 H          8.0359767065        0.3706740759       -0.2346852396
 H          7.9278566812        0.5842794663       -1.9984974045
 H          7.9160090411        2.0054507351       -0.9308085960
 H          5.4727679869        2.1267345807       -2.4955020422
 H          1.7879195109        1.0396167403       -1.2755743152
 H         -0.6753029159        1.1408445333       -1.4803034842
 H         -1.4725774772       -2.5659695975       -0.3575210415
 H         -2.8012271063       -4.5645484770       -0.8245288195
 H         -5.2690828668       -4.4138772164       -0.9760210291
 H         -6.3679211130       -2.2027506278       -0.6903845796
 H         -6.2719632569        2.2989961857        0.0390764570
 H         -5.0921833323        4.4204542121        0.5735494904
 H         -2.6403686181        4.3844135461        0.9229387577
 H         -1.3963442346        2.2890408055        0.7027742399
 H         -1.0648651054       -1.4472003259        1.8944959733
 H          1.4073651953       -1.5463961942        2.0908033857
 H          5.3398654409       -1.8571936923        2.4822705220
  47
  -78.8082931200000       8.340974599658953E-002 !
 C          7.6414317031       -0.7366035205        0.9240932705
 N          6.2083656178       -0.6761284077        0.8416113224
 C          5.2899436366       -1.3496126099        1.5912069873
 N          4.0553018491       -1.0934989875        1.2825707674
 C          4.1211401389       -0.1859314429        0.2551320809
 C          3.1811038800        0.4969060040       -0.5300385596
 C          1.7370588432        0.3604921267       -0.3927912012
 C          0.8904395345        1.0412298564       -1.2704283547
 C         -0.4772743244        0.9241762982       -1.1547408064
 C         -1.0285953013        0.1256562598       -0.1537237393
 N         -2.4274160810        0.0075309007       -0.0306255438
 C         -3.0521921987       -1.2319567512       -0.1831870189
 C         -2.3475444670       -2.3839585934       -0.5103751611
 C         -3.0001449470       -3.5986309999       -0.6569250701
 C         -4.3676253588       -3.6817659818       -0.4912840321
 C         -5.0904208877       -2.5347374954       -0.1976869380
 C         -4.4450053231       -1.3209003296       -0.0526494350
 O         -5.2327734213       -0.2261224924        0.2035773342
 C         -4.6052987319        0.9880085230        0.3325652003
 C         -5.4093736907        2.0827435789        0.5893062098
 C         -4.8474707435        3.3383673709        0.7680202159
 C         -3.4764716003        3.4832966195        0.7073619257
 C         -2.6655201522        2.3889246184        0.4473820642
 C         -3.2144983524        1.1309229915        0.2313001042
 C         -0.1870727929       -0.5547980370        0.7241153140
 C          1.1823767731       -0.4416997587        0.6060229086
 N          3.6443681755        1.3291026478       -1.4674925754
 C          4.9434353058        1.4912373725       -1.6310008896
 N          5.9264754046        0.9132170745       -0.9613501351
 C          5.4841537911        0.0806401695       -0.0277214161
 H          7.9957449893       -1.7424369760        0.6880131057
 H          8.0446899099       -0.0296332561        0.1999609575
 H          7.9770351374       -0.4659854301        1.9272457573
 H          5.5801683828       -2.0308776235        2.3680380907
 H          1.3327839808        1.6511981271       -2.0416231068
 H         -1.1320062082        1.4424716081       -1.8397376671
 H         -1.2812060643       -2.3304762652       -0.6601804731
 H         -2.4260193721       -4.4776979266       -0.9063837678
 H         -4.8792320241       -4.6250104829       -0.5995928073
 H         -6.1622200397       -2.5595572768       -0.0822258329
 H         -6.4748525296        1.9294477558        0.6517436941
 H         -5.4829092865        4.1873654574        0.9642485932
 H         -3.0217717382        4.4493587635        0.8644507903
 H         -1.5949876174        2.5141439945        0.4201130170
 H         -0.6187842356       -1.1661884545        1.5027134053
 H          1.8366370117       -0.9634974607        1.2858526586
 H          5.2416434880        2.1818892886       -2.4086598311
  47
  -78.8082911900000       8.323957076938807E-002 !
 C          7.6185988142       -0.5884172113       -1.1331891103
 N          6.1876836795       -0.5276633280       -1.0224679656
 C          5.2531880857       -1.0349660290       -1.8758131583
 N          4.0251134968       -0.8254073588       -1.5113361735
 C          4.1128174770       -0.1293523504       -0.3318189069
 C          3.1889569152        0.4014513292        0.5796588976
 C          1.7423669725        0.3047545541        0.4371611204
 C          1.1708072096       -0.3160471312       -0.6752406718
 C         -0.2002622133       -0.4053219052       -0.7909394158
 C         -1.0274898207        0.1187785628        0.2009900906
 N         -2.4274483581        0.0140254331        0.0827178661
 C         -3.0400598030       -1.2391222401        0.0139197623
 C         -2.3246086045       -2.4235438861        0.1407995720
 C         -2.9640842400       -3.6517182606        0.0685520211
 C         -4.3296624036       -3.7185677073       -0.1189179896
 C         -5.0636594108       -2.5452596977       -0.2110302261
 C         -4.4312920407       -1.3182245538       -0.1368012241
 O         -5.2301063532       -0.2038093812       -0.1995410525
 C         -4.6141737577        1.0206876943       -0.1204296965
 C         -5.4289885299        2.1351002311       -0.1935545185
 C         -4.8799598931        3.4083378279       -0.1559219232
 C         -3.5107994030        3.5544227819       -0.0648259091
 C         -2.6891960367        2.4399285253        0.0109760821
 C         -3.2252239883        1.1579618791        0.0094056041
 C         -0.4596059710        0.7415402219        1.3116394492
 C          0.9102943336        0.8343949507        1.4261311037
 N          3.6719698015        1.0352149923        1.6527890923
 C          4.9742757892        1.1468303101        1.8300216946
 N          5.9436263945        0.6940223355        1.0525469825
 C          5.4818902654        0.0610116717       -0.0181078590
 H          7.9511511793       -0.1041001729       -2.0529979354
 H          8.0399109635       -0.0682125715       -0.2746257438
 H          7.9579784619       -1.6259108997       -1.1332635775
 H          5.5266156309       -1.5610378592       -2.7705516330
 H          1.8133604683       -0.7190077553       -1.4417085707
 H         -0.6449048410       -0.8787487110       -1.6539443451
 H         -1.2596644617       -2.3866348132        0.3048401066
 H         -2.3810010385       -4.5545536517        0.1643999017
 H         -4.8311074838       -4.6712502857       -0.1820238777
 H         -6.1345036233       -2.5605569457       -0.3356810866
 H         -6.4925525632        1.9840997954       -0.2867468420
 H         -5.5237455621        4.2716872763       -0.2109229666
 H         -3.0657414793        4.5374039137       -0.0563294864
 H         -1.6200678775        2.5691859093        0.0632729992
 H         -1.1025577036        1.1403175552        2.0824689210
 H          1.3657687401        1.3074556319        2.2812891863
 H          5.2888751909        1.6730368218        2.7217894071
  47
  -78.8082909900000       8.322195589636563E-002 !
 C          7.6196410813        0.2003019613        1.2763689039
 N          6.1887117835        0.1927416501        1.1528439034
 C          5.2550117428        0.2511314859        2.1444990311
 N          4.0265229766        0.2187505216        1.7260275442
 C          4.1131696416        0.1324329998        0.3591156431
 C          3.1887745879        0.0556352130       -0.6924563018
 C          1.7421738964        0.0401436077       -0.5196788884
 C          0.9115215176       -0.0341000642       -1.6400170985
 C         -0.4581071202       -0.0604919246       -1.4943449598
 C         -1.0267857522       -0.0143214451       -0.2223324860
 N         -2.4276202821       -0.0499007283       -0.0713930617
 C         -3.1586332745       -1.1600324522       -0.4989529029
 C         -2.5502298679       -2.2880989169       -1.0356865492
 C         -3.3061099195       -3.3745106503       -1.4492551115
 C         -4.6801989587       -3.3579348716       -1.3234397209
 C         -5.3004853339       -2.2534800884       -0.7578679333
 C         -4.5513735565       -1.1690091522       -0.3413209708
 O         -5.2339060608       -0.1296159008        0.2409337821
 C         -4.4986693760        0.9471521666        0.6711721131
 C         -5.1966071057        1.9879352129        1.2545237419
 C         -4.5291802787        3.1264234018        1.6822026616
 C         -3.1641690683        3.2208838403        1.5032617899
 C         -2.4586765705        2.1783167357        0.9218006803
 C         -3.1069798404        1.0171628809        0.5192313457
 C         -0.2015443537        0.0640279412        0.8976380345
 C          1.1696783570        0.0917814350        0.7525570459
 N          3.6710254829       -0.0149510756       -1.9371319536
 C          4.9731121329       -0.0146518413       -2.1477573353
 N          5.9430629228        0.0445670267       -1.2501998167
 C          5.4820012116        0.1174354195       -0.0085065459
 H          8.0393817402        0.2157035620        0.2717463073
 H          7.9496574478        1.0835264917        1.8255942473
 H          7.9635990670       -0.6945040675        1.7992275065
 H          5.5292124723        0.3188274303        3.1801145555
 H          1.3677243705       -0.0639249590       -2.6164616318
 H         -1.1014229820       -0.1111563715       -2.3604467896
 H         -1.4761945083       -2.3215406159       -1.1242150838
 H         -2.8060659471       -4.2345174646       -1.8676181983
 H         -5.2732645104       -4.1978917681       -1.6488417040
 H         -6.3699131502       -2.2162881155       -0.6252540000
 H         -6.2652643809        1.8902254040        1.3598271563
 H         -5.0818642696        3.9319177940        2.1391891150
 H         -2.6330219935        4.1085579520        1.8107025724
 H         -1.3949907250        2.2720579702        0.7724814423
 H         -0.6469418412        0.0941457243        1.8811275057
 H          1.8118512107        0.1440672755        1.6170613066
 H          5.2869347201       -0.0725378221       -3.1816548862
  47
  -78.8082871400000       8.288359519266569E-002 !
 C          7.6253761625        0.3036218427        1.2533778009
 N          6.1940728828        0.2812211318        1.1358925060
 C          5.2632569468        0.3998347415        2.1248963993
 N          4.0336013973        0.3347278898        1.7141188102
 C          4.1162873576        0.1589486091        0.3555735662
 C          3.1889162048        0.0085875294       -0.6852163735
 C          1.7427119202        0.0023284726       -0.5084813114
 C          1.1712115582        0.1597909382        0.7553253827
 C         -0.2000100147        0.1413653415        0.9038041934
 C         -1.0259538150       -0.0341762479       -0.2044698824
 N         -2.4267465624       -0.0620032406       -0.0513735610
 C         -3.1527357302       -1.2048266693       -0.3927128477
 C         -2.5370480550       -2.3754461386       -0.8185737708
 C         -3.2872851349       -3.4945797902       -1.1460070018
 C         -4.6630758009       -3.4680251860       -1.0422765251
 C         -5.2911236022       -2.3180813672       -0.5866491221
 C         -4.5476867508       -1.2002499924       -0.2571436321
 O         -5.2382313271       -0.1127675259        0.2177384471
 C         -4.5084260858        0.9978427121        0.5628235819
 C         -5.2152486120        2.0871713632        1.0365792073
 C         -4.5535916667        3.2584470604        1.3751729202
 C         -3.1847329864        3.3345717898        1.2179559060
 C         -2.4705959236        2.2441566569        0.7448361445
 C         -3.1139427463        1.0531184249        0.4316038858
 C         -0.4580407460       -0.1870001221       -1.4684561725
 C          0.9111698703       -0.1686321386       -1.6175318822
 N          3.6677122725       -0.1443853686       -1.9236361327
 C          4.9691055574       -0.1519833780       -2.1385478932
 N          5.9415846271       -0.0275001373       -1.2508213854
 C          5.4840174697        0.1256037983       -0.0151917397
 H          8.0416625444        0.2434699683        0.2493173837
 H          7.9536874791        1.2275579696        1.7314846514
 H          7.9743621094       -0.5465299417        1.8422132228
 H          5.5405966435        0.5358341620        3.1526598622
 H          1.8141178350        0.2863265151        1.6115988206
 H         -0.6443521052        0.2531093730        1.8817966345
 H         -1.4618017265       -2.4156788653       -0.8880652892
 H         -2.7816350401       -4.3877111064       -1.4795796079
 H         -5.2516936971       -4.3340563121       -1.3002792660
 H         -6.3623843586       -2.2697968101       -0.4743038553
 H         -6.2861250681        2.0003394328        1.1273623138
 H         -5.1132899214        4.1022055636        1.7465044633
 H         -2.6571624031        4.2448535552        1.4579476928
 H         -1.4038073341        2.3234747110        0.6099823756
 H         -1.1019942680       -0.3151343862       -2.3259866613
 H          1.3666345831       -0.2822281964       -2.5880397757
 H          5.2797770449       -0.2814231117       -3.1666267820
  47
  -78.8082711600000       8.149382107098077E-002 !
 C          7.6287682439       -0.6311330605        1.0354618964
 N          6.1980632732       -0.6046583914        0.9118297205
 C          5.2733958358       -1.2396739913        1.6870609714
 N          4.0418701951       -1.0168521074        1.3427912388
 C          4.1163654690       -0.1735958231        0.2625716013
 C          3.1822773034        0.4557593773       -0.5725280654
 C          1.7374227755        0.3270626924       -0.4368192178
 C          1.1788458569       -0.4808428661        0.5552580218
 C         -0.1910412811       -0.5854134616        0.6745481485
 C         -1.0291919284        0.1132628416       -0.1920293060
 N         -2.4284382675        0.0064530610       -0.0632658534
 C         -3.0621293782       -1.2279491580       -0.2180159408
 C         -2.3709322055       -2.3754808903       -0.5872859327
 C         -3.0315277628       -3.5850024037       -0.7393830498
 C         -4.3941702522       -3.6670304027       -0.5373304002
 C         -5.1041312150       -2.5239788935       -0.2002570676
 C         -4.4506946924       -1.3152306852       -0.0491541820
 O         -5.2262294599       -0.2233667789        0.2532048734
 C         -4.5904826358        0.9867594304        0.3837111060
 C         -5.3824089481        2.0788371101        0.6854861924
 C         -4.8112480718        3.3299801737        0.8667760116
 C         -3.4426719539        3.4729326577        0.7622792176
 C         -2.6438261886        2.3809551720        0.4585758272
 C         -3.2030073916        1.1275840394        0.2413755232
 C         -0.4743363674        0.9179375887       -1.1860776706
 C          0.8941904589        1.0229053077       -1.3059902162
 N          3.6528023168        1.2314809632       -1.5540629949
 C          4.9528326218        1.3885152581       -1.7132150792
 N          5.9307033420        0.8630879675       -0.9940832849
 C          5.4814341392        0.0891074375       -0.0147439800
 H          7.9976965641       -1.6567440845        0.9773775772
 H          8.0440550492       -0.0464591638        0.2160181954
 H          7.9380867115       -0.1939511805        1.9869851654
 H          5.5569820836       -1.8685086299        2.5091893796
 H          1.8304452501       -1.0130614124        1.2295696918
 H         -0.6256481754       -1.2040591453        1.4458288589
 H         -1.3088771312       -2.3219026804       -0.7652426567
 H         -2.4672112950       -4.4605411414       -1.0214951607
 H         -4.9119367817       -4.6062531161       -0.6503897607
 H         -6.1722805000       -2.5482348918       -0.0547611760
 H         -6.4457244572        1.9272072201        0.7810708451
 H         -5.4374616701        4.1768690888        1.0986653017
 H         -2.9803022484        4.4353260215        0.9191197790
 H         -1.5743075149        2.5038549571        0.3987838772
 H         -1.1268100313        1.4499461201       -1.8626794258
 H          1.3396925698        1.6356307451       -2.0731068214
 H          5.2572127884        2.0282498957       -2.5310624076
  47
  -78.8082651600000       8.097804214111930E-002 !
 C          7.6305609776       -0.6374981123        1.0237073435
 N          6.1988966719       -0.5924631449        0.9177048170
 C          5.2745319204       -1.1926212577        1.7203775362
 N          4.0423715414       -0.9674327121        1.3798942952
 C          4.1162248582       -0.1596674084        0.2728693410
 C          3.1814993523        0.4505049093       -0.5755893484
 C          1.7366032308        0.3315138891       -0.4303150574
 C          1.1800405105       -0.4639583309        0.5727124516
 C         -0.1896509231       -0.5685201956        0.6946235671
 C         -1.0288509979        0.1200231910       -0.1787675476
 N         -2.4284178192        0.0086723799       -0.0516933318
 C         -3.0589905160       -1.2253404559       -0.2192086495
 C         -2.3616569195       -2.3719424751       -0.5792690816
 C         -3.0195939409       -3.5814591454       -0.7431681892
 C         -4.3850504828       -3.6641232876       -0.5613808023
 C         -5.1005240147       -2.5219291350       -0.2327710756
 C         -4.4499596150       -1.3131094603       -0.0707231767
 O         -5.2302206231       -0.2215133219        0.2209082544
 C         -4.5952271685        0.9861016281        0.3758083587
 C         -5.3893229917        2.0758243716        0.6800223563
 C         -4.8185478063        3.3237862023        0.8836834364
 C         -3.4486727731        3.4661846652        0.7983093955
 C         -2.6474650888        2.3766748878        0.4917606885
 C         -3.2059649029        1.1269433559        0.2537536063
 C         -0.4762691481        0.9173697338       -1.1797346078
 C          0.8920350204        1.0201399797       -1.3039139610
 N          3.6512707843        1.1929293920       -1.5827168503
 C          4.9514962145        1.3332974407       -1.7561372307
 N          5.9300717420        0.8187423361       -1.0302954331
 C          5.4813997685        0.0801170233       -0.0237733207
 H          7.9591694824       -0.1774609640        1.9577057215
 H          7.9824304380       -1.6700076015        0.9912879687
 H          8.0435435839       -0.0838854326        0.1819374489
 H          5.5585757979       -1.7985343951        2.5594930356
 H          1.8328213456       -0.9877885330        1.2523323260
 H         -0.6232052781       -1.1799850571        1.4721532772
 H         -1.2969557315       -2.3175594002       -0.7406399082
 H         -2.4511506557       -4.4565718373       -1.0182879885
 H         -4.9009777942       -4.6032369233       -0.6835211201
 H         -6.1707207394       -2.5470577120       -0.1032061271
 H         -6.4541186121        1.9252845094        0.7589255132
 H         -5.4466077058        4.1687144658        1.1176204379
 H         -2.9872016619        4.4257509588        0.9738286960
 H         -1.5770847601        2.4979740863        0.4451052984
 H         -1.1306763318        1.4445581462       -1.8583559598
 H          1.3363661419        1.6251408719       -2.0779182318
 H          5.2554507453        1.9448369202       -2.5953947223
