  48
  -71.2985060578000       0.339311142379535      !
 C          0.8651082950       -2.7965926324       -1.1248024424
 C          0.2577050128       -1.9715570366        0.0415777055
 C          0.6395512926       -2.5341715746        1.4355077763
 C         -1.2441077735       -2.1305570769       -0.0282176423
 C         -1.7941052610       -3.4035054085       -0.0617574722
 C         -3.1621631704       -3.6068642933       -0.0733618200
 C         -4.0182120392       -2.5108504634       -0.0405492250
 C         -3.5048001802       -1.2377541501       -0.0122852806
 C         -2.1133212357       -1.0264067335       -0.0155506216
 N         -1.6041129646        0.2455745768       -0.0112724980
 C         -2.5247706638        1.3351032533        0.0086359139
 C         -2.8893573555        1.9063673176        1.2201355939
 C         -3.7902186830        2.9566758807        1.2370218121
 C         -4.3246521005        3.4342516131        0.0516866547
 C         -3.9588473310        2.8616365527       -1.1552514039
 C         -3.0589620600        1.8108575362       -1.1817770235
 C         -0.2596766700        0.5307428242       -0.0435119609
 C          0.1513360964        1.8608857911       -0.1039790016
 C          1.4805913475        2.1895930708       -0.1206801259
 C          2.4869937477        1.1803852347       -0.0653384774
 C          3.8206747676        1.5362176911       -0.0645830038
 C          4.8489867913        0.5463230478       -0.0075693716
 C          6.1938276838        0.9172641101       -0.0059159826
 N          7.3060476254        1.2248459200       -0.0036972149
 C          4.4730579645       -0.7920484518        0.0465788304
 C          3.1452979886       -1.1593453103        0.0436558637
 C          2.0827039669       -0.1977531805       -0.0122812100
 C          0.7240609997       -0.5353463268       -0.0189110000
 H          0.0929417861       -3.0261898898       -1.8567456031
 H          1.2839382229       -3.7351091043       -0.7700240220
 H          1.6422643330       -2.2405788433       -1.6399309770
 H          0.4232949437       -3.5978250729        1.4906464030
 H          0.0495853387       -2.0274910371        2.1981236265
 H          1.6874302760       -2.3726695863        1.6645912458
 H         -1.1398335359       -4.2614943052       -0.0827712880
 H         -3.5605983616       -4.6088542646       -0.1021213197
 H         -5.0876009339       -2.6573505925       -0.0383965870
 H         -4.1719090371       -0.3903244193        0.0130330037
 H         -2.4641702151        1.5262975184        2.1369765742
 H         -4.0750097598        3.4015355551        2.1783092184
 H         -5.0267921645        4.2537568512        0.0686043532
 H         -4.3737389471        3.2334727104       -2.0797611286
 H         -2.7642231890        1.3564499318       -2.1158653553
 H         -0.5870658578        2.6468679350       -0.1397459074
 H          1.7866046459        3.2223481915       -0.1708612822
 H          4.1002485103        2.5778626182       -0.1071678516
 H          5.2373104036       -1.5555256783        0.0910664327
 H          2.9316555576       -2.2114473724        0.0840177961
  48
  -71.2983621529000       0.291382864423982      !
 C          0.8151231566       -2.7564618706       -1.1764403110
 C          0.2582343402       -1.9733979191        0.0441136245
 C          0.7033388362       -2.5836605390        1.3981870125
 C         -1.2454051316       -2.1309487973        0.0228569519
 C         -1.7956968562       -3.4040738035       -0.0048728682
 C         -3.1635266600       -3.6077883341       -0.0186350707
 C         -4.0193448533       -2.5112155599       -0.0134394103
 C         -3.5057108280       -1.2381097605        0.0077559828
 C         -2.1145116877       -1.0268269831        0.0352589081
 N         -1.6055829940        0.2453977669        0.0542080774
 C         -2.5243340343        1.3353189117        0.0062500655
 C         -3.1134792789        1.7995369428        1.1749985238
 C         -4.0108872738        2.8514767885        1.1164909104
 C         -4.3197148524        3.4364932215       -0.1002484397
 C         -3.7302102068        2.9703795048       -1.2641839180
 C         -2.8316462956        1.9196685817       -1.2153209424
 C         -0.2609319927        0.5301053296        0.0691634147
 C          0.1507746071        1.8603134189        0.1279978233
 C          1.4795148239        2.1902014458        0.1107895516
 C          2.4849329454        1.1816914999        0.0298393715
 C          3.8179255341        1.5383581215       -0.0026030503
 C          4.8457950393        0.5485128060       -0.0655466800
 C          6.1896067841        0.9208784283       -0.1076637115
 N          7.3028440766        1.2231587719       -0.1400363991
 C          4.4706078520       -0.7911328902       -0.0823730595
 C          3.1433889700       -1.1590791251       -0.0522338505
 C          2.0808445623       -0.1971587371       -0.0028389093
 C          0.7225777202       -0.5353984733        0.0197703620
 H          0.0059003408       -2.9981843808       -1.8629273920
 H          1.2846813133       -3.6876844724       -0.8693686156
 H          1.5396449431       -2.1647029145       -1.7275757949
 H          1.7591540643       -2.4199901970        1.5863390847
 H          0.4999203693       -3.6508261248        1.4241630912
 H          0.1433514585       -2.1105707706        2.2036252850
 H         -1.1414347980       -4.2621406010       -0.0238193460
 H         -3.5617492940       -4.6100795634       -0.0377826578
 H         -5.0886665112       -2.6571061025       -0.0295089112
 H         -4.1729239621       -0.3904682403        0.0024527118
 H         -2.8642963663        1.3354334646        2.1175658362
 H         -4.4689111384        3.2140403638        2.0241554633
 H         -5.0198817027        4.2568161865       -0.1420332900
 H         -3.9692741070        3.4256107709       -2.2131701658
 H         -2.3635499667        1.5479157914       -2.1145086681
 H         -0.5871568898        2.6451588298        0.1892831007
 H          1.7861781899        3.2228186179        0.1601065288
 H          4.0972330922        2.5806755276        0.0227771580
 H          5.2348453053       -1.5547954502       -0.1239118299
 H          2.9294952000       -2.2115119197       -0.0732404477
  48
  -71.2981595008000       0.235142727509499      !
 C          0.7732400171       -2.7269594032       -1.2286192692
 C          0.2564963844       -1.9758733947        0.0296501426
 C          0.7485813922       -2.6198804800        1.3509437974
 C         -1.2472198718       -2.1340651322        0.0466979513
 C         -1.7961447850       -3.4081560428        0.0263486325
 C         -3.1634919842       -3.6141331536        0.0258344535
 C         -4.0206528675       -2.5186992075        0.0289357585
 C         -3.5083748536       -1.2448721507        0.0413638852
 C         -2.1176430532       -1.0310920987        0.0667571211
 N         -1.6094105905        0.2420862065        0.0869887139
 C         -2.5214723046        1.3343832166        0.0044122626
 C         -3.1987878827        1.7688703136        1.1370750170
 C         -4.0863172193        2.8260469497        1.0389833822
 C         -4.2981951598        3.4472340550       -0.1806369605
 C         -3.6209050435        3.0113249700       -1.3083096619
 C         -2.7319440393        1.9555231386       -1.2197969733
 C         -0.2644489419        0.5250492118        0.1200092821
 C          0.1475210743        1.8516744610        0.2355100055
 C          1.4758810180        2.1825791582        0.2228100299
 C          2.4803314226        1.1800720428        0.0773085042
 C          3.8127123023        1.5385869208        0.0422786943
 C          4.8392429833        0.5534454550       -0.0837501321
 C          6.1828060237        0.9265002427       -0.1282646662
 N          7.2932085396        1.2379873117       -0.1707250057
 C          4.4636305821       -0.7841895880       -0.1589211053
 C          3.1373164868       -1.1540824993       -0.1237373242
 C          2.0761320895       -0.1963338554       -0.0103607550
 C          0.7189988671       -0.5372746668        0.0287134884
 H          1.2693324336       -3.6562088126       -0.9597807972
 H          1.4644289143       -2.1122350891       -1.7973122336
 H         -0.0602729240       -2.9691057306       -1.8852377541
 H          0.5531606527       -3.6887470623        1.3552958466
 H          0.2126893990       -2.1721258142        2.1866406228
 H          1.8093179917       -2.4541909988        1.5080137376
 H         -1.1409457796       -4.2652323471       -0.0006497060
 H         -3.5604056832       -4.6170575640        0.0132640109
 H         -5.0898319081       -2.6658693041        0.0150596858
 H         -4.1771880224       -0.3986722449        0.0302187450
 H         -3.0240745288        1.2781355998        2.0829284359
 H         -4.6119822836        3.1654481770        1.9186323277
 H         -4.9907480029        4.2718120125       -0.2530368701
 H         -3.7847342337        3.4938881147       -2.2597607668
 H         -2.1932587281        1.6098558399       -2.0894701713
 H         -0.5903157520        2.6318745162        0.3417189871
 H          1.7830609014        3.2113929740        0.3224583043
 H          4.0927742393        2.5784559938        0.1154969347
 H          5.2269203805       -1.5439790587       -0.2541802762
 H          2.9222331340       -2.2040364412       -0.1946818897
  48
  -71.2976292249000       0.134163265686984      !
 C          0.7058607938       -2.6537651480       -1.2948422286
 C          0.2581650451       -1.9739617803        0.0255504193
 C          0.7856075164       -2.6843522655        1.2984801263
 C         -1.2457015157       -2.1336039138        0.0579056639
 C         -1.7985372785       -3.4055379079        0.0806397800
 C         -3.1669119613       -3.6068906091        0.0747162929
 C         -4.0212257217       -2.5100899966        0.0321989899
 C         -3.5053729888       -1.2379185022        0.0111203597
 C         -2.1140160154       -1.0281544409        0.0375320635
 N         -1.6037390057        0.2438770341        0.0342271043
 C         -2.5220957266        1.3338679461       -0.0131474447
 C         -3.1287149263        1.7802121789        1.1538475527
 C         -4.0266005904        2.8316688213        1.0985553668
 C         -4.3181973674        3.4350228820       -0.1133906195
 C         -3.7108059366        2.9875985083       -1.2754263995
 C         -2.8120413433        1.9367844635       -1.2297279066
 C         -0.2591528395        0.5289769775        0.0617869436
 C          0.1517403569        1.8592404501        0.1235599222
 C          1.4806292260        2.1884140794        0.1165944631
 C          2.4863989285        1.1799830011        0.0410478509
 C          3.8190435539        1.5390690046        0.0128860468
 C          4.8486572892        0.5518266417       -0.0493592928
 C          6.1926576610        0.9248505133       -0.0832972256
 N          7.3049412949        1.2311798891       -0.1072745885
 C          4.4755542525       -0.7881008079       -0.0720244370
 C          3.1489586382       -1.1590644704       -0.0439476093
 C          2.0833706031       -0.1992531597        0.0071669565
 C          0.7243436050       -0.5368960574        0.0294357868
 H          0.7313464602       -3.7345444365       -1.1852227236
 H          1.6807972897       -2.3107977348       -1.6229086438
 H         -0.0085933529       -2.4093521353       -2.0798824585
 H          0.1059220970       -2.4824434674        2.1249902222
 H          1.7671185303       -2.3271565255        1.5893027615
 H          0.8340851667       -3.7600524862        1.1539445935
 H         -1.1490189228       -4.2661997414        0.1008422315
 H         -3.5667707242       -4.6084948365        0.0947376572
 H         -5.0906441390       -2.6549675565        0.0138985804
 H         -4.1713434353       -0.3901758530       -0.0272427951
 H         -2.8924100716        1.3017297467        2.0924343004
 H         -4.4980653310        3.1794994749        2.0049890325
 H         -5.0192091016        4.2547659654       -0.1525494087
 H         -3.9371217310        3.4568096294       -2.2207376056
 H         -2.3296775313        1.5804991491       -2.1275372513
 H         -0.5862234903        2.6444775247        0.1785192292
 H          1.7872580788        3.2209848756        0.1670384022
 H          4.0959541609        2.5818981868        0.0403649835
 H          5.2410687161       -1.5504541494       -0.1132959021
 H          2.9415067536       -2.2135294759       -0.0635580078
