  48
        -71.62099119
 C          0.8651082950       -2.7965926324       -1.1248024424
 C          0.2577050128       -1.9715570366        0.0415777055
 C          0.6395512926       -2.5341715746        1.4355077763
 C         -1.2441077735       -2.1305570769       -0.0282176423
 C         -1.7941052610       -3.4035054085       -0.0617574722
 C         -3.1621631704       -3.6068642933       -0.0733618200
 C         -4.0182120392       -2.5108504634       -0.0405492250
 C         -3.5048001802       -1.2377541501       -0.0122852806
 C         -2.1133212357       -1.0264067335       -0.0155506216
 N         -1.6041129646        0.2455745768       -0.0112724980
 C         -2.5247706638        1.3351032533        0.0086359139
 C         -2.8893573555        1.9063673176        1.2201355939
 C         -3.7902186830        2.9566758807        1.2370218121
 C         -4.3246521005        3.4342516131        0.0516866547
 C         -3.9588473310        2.8616365527       -1.1552514039
 C         -3.0589620600        1.8108575362       -1.1817770235
 C         -0.2596766700        0.5307428242       -0.0435119609
 C          0.1513360964        1.8608857911       -0.1039790016
 C          1.4805913475        2.1895930708       -0.1206801259
 C          2.4869937477        1.1803852347       -0.0653384774
 C          3.8206747676        1.5362176911       -0.0645830038
 C          4.8489867913        0.5463230478       -0.0075693716
 C          6.1938276838        0.9172641101       -0.0059159826
 N          7.3060476254        1.2248459200       -0.0036972149
 C          4.4730579645       -0.7920484518        0.0465788304
 C          3.1452979886       -1.1593453103        0.0436558637
 C          2.0827039669       -0.1977531805       -0.0122812100
 C          0.7240609997       -0.5353463268       -0.0189110000
 H          0.0929417861       -3.0261898898       -1.8567456031
 H          1.2839382229       -3.7351091043       -0.7700240220
 H          1.6422643330       -2.2405788433       -1.6399309770
 H          0.4232949437       -3.5978250729        1.4906464030
 H          0.0495853387       -2.0274910371        2.1981236265
 H          1.6874302760       -2.3726695863        1.6645912458
 H         -1.1398335359       -4.2614943052       -0.0827712880
 H         -3.5605983616       -4.6088542646       -0.1021213197
 H         -5.0876009339       -2.6573505925       -0.0383965870
 H         -4.1719090371       -0.3903244193        0.0130330037
 H         -2.4641702151        1.5262975184        2.1369765742
 H         -4.0750097598        3.4015355551        2.1783092184
 H         -5.0267921645        4.2537568512        0.0686043532
 H         -4.3737389471        3.2334727104       -2.0797611286
 H         -2.7642231890        1.3564499318       -2.1158653553
 H         -0.5870658578        2.6468679350       -0.1397459074
 H          1.7866046459        3.2223481915       -0.1708612822
 H          4.1002485103        2.5778626182       -0.1071678516
 H          5.2373104036       -1.5555256783        0.0910664327
 H          2.9316555576       -2.2114473724        0.0840177961
