  88
       -148.47645961
 O          8.8091701496       -2.5026799222        0.8695176445
 C          8.0665701155       -1.7436546947        0.2802519105
 C          8.5757814646       -0.5455121211       -0.4325572687
 C          7.9737858032       -0.0681422806       -1.5951958508
 C          8.5028171716        1.0310549537       -2.2461630526
 C          9.6270047213        1.6661233232       -1.7428840303
 C         10.2370852660        1.1894016003       -0.5935202510
 C          9.7212977752        0.0825649059        0.0526790446
 C          6.5972016000       -1.9739797627        0.2391265234
 C          6.1348432377       -3.3119606894        0.2554777194
 C          4.8024823582       -3.5976897813        0.2348508128
 C          3.8587189536       -2.5472578877        0.2194524926
 N          2.5479639243       -2.8244468903        0.1909649755
 C          1.6999815139       -1.8129329301        0.1912338020
 C          0.2833034312       -2.0866630617        0.1457044585
 C         -0.1603503928       -3.4104991624        0.0566797800
 C         -1.4987878429       -3.7053349184       -0.0176421110
 C         -2.4333886794       -2.6655295632        0.0119395842
 N         -3.8096192764       -2.9441453374       -0.0835429781
 C         -4.5740814474       -2.4119338536       -1.1273652243
 C         -4.0219602604       -1.6327457709       -2.1370789725
 C         -4.8123141855       -1.1193368666       -3.1537041972
 C         -6.1654173849       -1.3866514810       -3.1892436287
 C         -6.7258408686       -2.1948733143       -2.2118600550
 C         -5.9416600767       -2.7105622136       -1.1964656304
 O         -6.5643024871       -3.5322108734       -0.2912241110
 C         -5.8049957677       -4.0348420367        0.7351241065
 C         -6.4530896933       -4.8312285408        1.6610616095
 C         -5.7623191680       -5.3454872573        2.7479102455
 C         -4.4266805517       -5.0385575514        2.9109899326
 C         -3.7717550998       -4.2421079446        1.9842031583
 C         -4.4397672237       -3.7503781462        0.8696561013
 C         -2.0043692243       -1.3524921759        0.1203876345
 C         -0.6478855557       -1.0292626515        0.1756023229
 C         -0.1805995104        0.3487265670        0.2352333644
 C         -1.0609471465        1.4316296547        0.2663599262
 C         -0.6024180711        2.7389533816        0.2644613323
 N         -1.5225607750        3.8042394692        0.2602932438
 C         -2.4520271377        3.9443706399       -0.7761333946
 C         -2.5092441410        3.0695584826       -1.8544127880
 C         -3.4466508729        3.2401113459       -2.8616162386
 C         -4.3342456278        4.2956143618       -2.8185044964
 C         -4.2666257659        5.1996523594       -1.7693253935
 C         -3.3332667485        5.0343063318       -0.7626158935
 O         -3.3080284616        5.9925701164        0.2189739792
 C         -2.4092063565        5.8273534959        1.2424018010
 C         -2.4261615408        6.7745371087        2.2494293431
 C         -1.5720283277        6.6569893951        3.3356217099
 C         -0.7198608849        5.5744021853        3.4155926064
 C         -0.6980359078        4.6228479849        2.4074523655
 C         -1.5196745224        4.7462824287        1.2938984396
 C          0.7720985195        2.9961618487        0.2555170517
 C          1.6550736133        1.9452181127        0.2534335910
 C          1.2016369407        0.6219889022        0.2401720209
 C          2.1595440073       -0.4591131395        0.2275434293
 N          3.4472998967       -0.1744065403        0.2479356599
 C          4.3178005381       -1.1956037291        0.2398713836
 C          5.7015369826       -0.9317993001        0.2448422308
 H          7.1078783526       -0.5707985544       -2.0004046871
 H          8.0373466677        1.3938513800       -3.1507651773
 H         10.0319349382        2.5283382123       -2.2519085653
 H         11.1178187314        1.6792096491       -0.2055085910
 H         10.1879068151       -0.3091883767        0.9442305292
 H          6.8747215972       -4.0982406962        0.2795114228
 H          4.4362302190       -4.6124582454        0.2350273854
 H          0.5849908844       -4.1893558317        0.0297332388
 H         -1.8380813572       -4.7257638174       -0.1119120857
 H         -2.9622914620       -1.4322220946       -2.1391571595
 H         -4.3547120655       -0.5125861100       -3.9197150018
 H         -6.7859252336       -0.9850237640       -3.9744793072
 H         -7.7746093708       -2.4447852219       -2.2216054972
 H         -7.5023205219       -5.0320695200        1.5152384010
 H         -6.2748195670       -5.9697742398        3.4625500066
 H         -3.8808222329       -5.4106400798        3.7639972574
 H         -2.7330634460       -3.9943470579        2.1362058951
 H         -2.7576812632       -0.5818779507        0.1580562792
 H         -2.1273601577        1.2751475787        0.2952451203
 H         -1.8078548149        2.2527785172       -1.9186539375
 H         -3.4705267972        2.5392089728       -3.6816864709
 H         -5.0678927175        4.4308235176       -3.5971555341
 H         -4.9284078236        6.0490763595       -1.7150125292
 H         -3.1204759436        7.5952222619        2.1659254490
 H         -1.5888630330        7.4028746942        4.1143406478
 H         -0.0654961964        5.4556159570        4.2653612924
 H         -0.0401689436        3.7723167151        2.4935758419
 H          1.1238333414        4.0167115473        0.2429094351
 H          2.7205231621        2.1118454713        0.2469619361
 H          6.0245802140        0.0977727886        0.2746991987
