  88
  -147.896565306600       0.456231241025854      !
 O          8.8091701496       -2.5026799222        0.8695176445
 C          8.0665701155       -1.7436546947        0.2802519105
 C          8.5757814646       -0.5455121211       -0.4325572687
 C          7.9737858032       -0.0681422806       -1.5951958508
 C          8.5028171716        1.0310549537       -2.2461630526
 C          9.6270047213        1.6661233232       -1.7428840303
 C         10.2370852660        1.1894016003       -0.5935202510
 C          9.7212977752        0.0825649059        0.0526790446
 C          6.5972016000       -1.9739797627        0.2391265234
 C          6.1348432377       -3.3119606894        0.2554777194
 C          4.8024823582       -3.5976897813        0.2348508128
 C          3.8587189536       -2.5472578877        0.2194524926
 N          2.5479639243       -2.8244468903        0.1909649755
 C          1.6999815139       -1.8129329301        0.1912338020
 C          0.2833034312       -2.0866630617        0.1457044585
 C         -0.1603503928       -3.4104991624        0.0566797800
 C         -1.4987878429       -3.7053349184       -0.0176421110
 C         -2.4333886794       -2.6655295632        0.0119395842
 N         -3.8096192764       -2.9441453374       -0.0835429781
 C         -4.5740814474       -2.4119338536       -1.1273652243
 C         -4.0219602604       -1.6327457709       -2.1370789725
 C         -4.8123141855       -1.1193368666       -3.1537041972
 C         -6.1654173849       -1.3866514810       -3.1892436287
 C         -6.7258408686       -2.1948733143       -2.2118600550
 C         -5.9416600767       -2.7105622136       -1.1964656304
 O         -6.5643024871       -3.5322108734       -0.2912241110
 C         -5.8049957677       -4.0348420367        0.7351241065
 C         -6.4530896933       -4.8312285408        1.6610616095
 C         -5.7623191680       -5.3454872573        2.7479102455
 C         -4.4266805517       -5.0385575514        2.9109899326
 C         -3.7717550998       -4.2421079446        1.9842031583
 C         -4.4397672237       -3.7503781462        0.8696561013
 C         -2.0043692243       -1.3524921759        0.1203876345
 C         -0.6478855557       -1.0292626515        0.1756023229
 C         -0.1805995104        0.3487265670        0.2352333644
 C         -1.0609471465        1.4316296547        0.2663599262
 C         -0.6024180711        2.7389533816        0.2644613323
 N         -1.5225607750        3.8042394692        0.2602932438
 C         -2.4520271377        3.9443706399       -0.7761333946
 C         -2.5092441410        3.0695584826       -1.8544127880
 C         -3.4466508729        3.2401113459       -2.8616162386
 C         -4.3342456278        4.2956143618       -2.8185044964
 C         -4.2666257659        5.1996523594       -1.7693253935
 C         -3.3332667485        5.0343063318       -0.7626158935
 O         -3.3080284616        5.9925701164        0.2189739792
 C         -2.4092063565        5.8273534959        1.2424018010
 C         -2.4261615408        6.7745371087        2.2494293431
 C         -1.5720283277        6.6569893951        3.3356217099
 C         -0.7198608849        5.5744021853        3.4155926064
 C         -0.6980359078        4.6228479849        2.4074523655
 C         -1.5196745224        4.7462824287        1.2938984396
 C          0.7720985195        2.9961618487        0.2555170517
 C          1.6550736133        1.9452181127        0.2534335910
 C          1.2016369407        0.6219889022        0.2401720209
 C          2.1595440073       -0.4591131395        0.2275434293
 N          3.4472998967       -0.1744065403        0.2479356599
 C          4.3178005381       -1.1956037291        0.2398713836
 C          5.7015369826       -0.9317993001        0.2448422308
 H          7.1078783526       -0.5707985544       -2.0004046871
 H          8.0373466677        1.3938513800       -3.1507651773
 H         10.0319349382        2.5283382123       -2.2519085653
 H         11.1178187314        1.6792096491       -0.2055085910
 H         10.1879068151       -0.3091883767        0.9442305292
 H          6.8747215972       -4.0982406962        0.2795114228
 H          4.4362302190       -4.6124582454        0.2350273854
 H          0.5849908844       -4.1893558317        0.0297332388
 H         -1.8380813572       -4.7257638174       -0.1119120857
 H         -2.9622914620       -1.4322220946       -2.1391571595
 H         -4.3547120655       -0.5125861100       -3.9197150018
 H         -6.7859252336       -0.9850237640       -3.9744793072
 H         -7.7746093708       -2.4447852219       -2.2216054972
 H         -7.5023205219       -5.0320695200        1.5152384010
 H         -6.2748195670       -5.9697742398        3.4625500066
 H         -3.8808222329       -5.4106400798        3.7639972574
 H         -2.7330634460       -3.9943470579        2.1362058951
 H         -2.7576812632       -0.5818779507        0.1580562792
 H         -2.1273601577        1.2751475787        0.2952451203
 H         -1.8078548149        2.2527785172       -1.9186539375
 H         -3.4705267972        2.5392089728       -3.6816864709
 H         -5.0678927175        4.4308235176       -3.5971555341
 H         -4.9284078236        6.0490763595       -1.7150125292
 H         -3.1204759436        7.5952222619        2.1659254490
 H         -1.5888630330        7.4028746942        4.1143406478
 H         -0.0654961964        5.4556159570        4.2653612924
 H         -0.0401689436        3.7723167151        2.4935758419
 H          1.1238333414        4.0167115473        0.2429094351
 H          2.7205231621        2.1118454713        0.2469619361
 H          6.0245802140        0.0977727886        0.2746991987
  88
  -147.896188911400       0.306341449991357      !
 O          8.7787616790       -2.6470499531        0.7523894632
 C          8.0633632975       -1.8099742496        0.2391126983
 C          8.6127787451       -0.5427151816       -0.3032700782
 C          8.0506352018        0.1004252948       -1.4042277784
 C          8.6209290593        1.2623683589       -1.8911376938
 C          9.7483432582        1.7942629815       -1.2857884325
 C         10.3207925425        1.1517590777       -0.1993796974
 C          9.7624002761       -0.0158731601        0.2832704165
 C          6.5935418324       -2.0156966285        0.1335429170
 C          6.1240237439       -3.3459002590        0.0095481445
 C          4.7912516330       -3.6208224136       -0.0587001328
 C          3.8525156336       -2.5683253367        0.0137389063
 N          2.5407453174       -2.8365501831       -0.0397773901
 C          1.6967627261       -1.8251162839        0.0434365644
 C          0.2786280492       -2.0925661024        0.0106637282
 C         -0.1751922750       -3.4075193028       -0.1389687616
 C         -1.5171782567       -3.6947252770       -0.1688759624
 C         -2.4460825165       -2.6602431644       -0.0130336026
 N         -3.8256224405       -2.9328584490       -0.0313787620
 C         -4.6695167632       -2.2910528691       -0.9460936906
 C         -4.1959070882       -1.4185321570       -1.9191752008
 C         -5.0644167264       -0.7910735558       -2.7987610465
 C         -6.4208205148       -1.0369487919       -2.7358318218
 C         -6.9057848423       -1.9403881754       -1.8028225891
 C         -6.0430754775       -2.5691283847       -0.9234885097
 O         -6.5981336906       -3.4787687916       -0.0602830570
 C         -5.7630112157       -4.0860250167        0.8428295507
 C         -6.3443436494       -4.9684260475        1.7347496891
 C         -5.5751435339       -5.5909335179        2.7059547317
 C         -4.2282224373       -5.3026552823        2.7924607884
 C         -3.6406591944       -4.4204445419        1.8988968701
 C         -4.3878311382       -3.8220464003        0.8916551357
 C         -2.0048334876       -1.3562601502        0.1477653315
 C         -0.6467791970       -1.0369675437        0.1322489602
 C         -0.1732719035        0.3377492033        0.2075007219
 C         -1.0500102041        1.4232526330        0.2232658173
 C         -0.5879147793        2.7294548345        0.2273361660
 N         -1.5093590729        3.7924838465        0.1811433807
 C         -2.4105704134        3.9056883964       -0.8835727498
 C         -2.4128847400        3.0257648095       -1.9594084534
 C         -3.3243161746        3.1676406688       -2.9943827806
 C         -4.2411488960        4.1986579466       -2.9818091961
 C         -4.2268013765        5.1092853299       -1.9362428252
 C         -3.3183327703        4.9734514221       -0.9026256805
 O         -3.3439465003        5.9380145301        0.0726563677
 C         -2.4590304101        5.8101700903        1.1135227255
 C         -2.5148805338        6.7738429096        2.1033826141
 C         -1.6799599537        6.6925190451        3.2076541577
 C         -0.8078347368        5.6291289719        3.3228019198
 C         -0.7461001382        4.6617111739        2.3314044214
 C         -1.5475907001        4.7495380216        1.1999688208
 C          0.7871264161        2.9820106008        0.2535171344
 C          1.6665432617        1.9275057985        0.2593662064
 C          1.2098706747        0.6059047578        0.2225874206
 C          2.1627536839       -0.4788412526        0.1732769873
 N          3.4514632776       -0.2037418831        0.2320964091
 C          4.3175869565       -1.2264257539        0.1595358537
 C          5.7023282615       -0.9729926641        0.2193636160
 H          7.1845826919       -0.3214142213       -1.8927676814
 H          8.1852715146        1.7551085451       -2.7478303883
 H         10.1857505121        2.7054249409       -1.6666581231
 H         11.2053281237        1.5599655399        0.2665272255
 H         10.1982140601       -0.5355815370        1.1235660048
 H          6.8601733433       -4.1350954815       -0.0293714564
 H          4.4202169458       -4.6289143667       -0.1584482070
 H          0.5638441657       -4.1856289077       -0.2454459373
 H         -1.8642164807       -4.7063052139       -0.3158706844
 H         -3.1367985080       -1.2322855681       -2.0020504753
 H         -4.6661853720       -0.1094520609       -3.5341658098
 H         -7.1018761983       -0.5456866977       -3.4123842114
 H         -7.9556948625       -2.1784453434       -1.7425608652
 H         -7.4043315007       -5.1491856311        1.6549131264
 H         -6.0360404342       -6.2820634131        3.3936706120
 H         -3.6206187695       -5.7581597977        3.5590008600
 H         -2.5913397540       -4.1904400160        1.9947565658
 H         -2.7489874655       -0.5894462758        0.2917971093
 H         -2.1174542698        1.2705995683        0.2194959637
 H         -1.6890219744        2.2271879986       -1.9994340604
 H         -3.3027776632        2.4651134957       -3.8132015276
 H         -4.9562121673        4.3102827590       -3.7813148391
 H         -4.9114629592        5.9416892129       -1.9059573433
 H         -3.2250669617        7.5776259642        1.9930329621
 H         -1.7276088981        7.4507921628        3.9730536185
 H         -0.1686009500        5.5380154780        4.1873841601
 H         -0.0733890796        3.8262056719        2.4452169899
 H          1.1436205307        4.0010014054        0.2504908964
 H          2.7324754503        2.0912751750        0.2680754955
 H          6.0280220908        0.0469996252        0.3563596587
  88
  -147.895948087300       0.237427308982789      !
 O          8.8029328865       -2.5130295094        0.6231494467
 C          8.0571587397       -1.7254437708        0.0772392411
 C          8.5609288261       -0.4880126871       -0.5691025787
 C          7.9551253142        0.0514023419       -1.7021649968
 C          8.4791320573        1.1872281112       -2.2914128911
 C          9.6015068165        1.7978690095       -1.7545062692
 C         10.2150594950        1.2601666286       -0.6343298098
 C          9.7048118939        0.1164873398       -0.0508763513
 C          6.5880603276       -1.9569985230        0.0276437394
 C          6.1282820905       -3.2949286636       -0.0250598812
 C          4.7964063924       -3.5821904170       -0.0566864262
 C          3.8502960780       -2.5346696234       -0.0121806203
 N          2.5399709718       -2.8119529647       -0.0550111031
 C          1.6903107153       -1.8038708450        0.0098289782
 C          0.2737694217       -2.0752925592       -0.0540043716
 C         -0.1661469680       -3.3944701402       -0.2062540899
 C         -1.5040226097       -3.6883864568       -0.2900427946
 C         -2.4396932494       -2.6510362468       -0.2322254786
 N         -3.8159109484       -2.9356811450       -0.3250194392
 C         -4.3346429787       -3.5565181291       -1.4651691767
 C         -3.5552653919       -3.8233535210       -2.5837943058
 C         -4.1020220801       -4.4369587666       -3.7004824782
 C         -5.4379414711       -4.7822813356       -3.7235855436
 C         -6.2376709605       -4.4904243440       -2.6288248764
 C         -5.6977952263       -3.8768020092       -1.5137739916
 O         -6.5589446843       -3.5883016557       -0.4854231456
 C         -6.0380539543       -2.9679607810        0.6221113013
 C         -6.9170504303       -2.6897754766        1.6523802959
 C         -6.4627070606       -2.0955770858        2.8201326090
 C         -5.1213929862       -1.8004515053        2.9542175018
 C         -4.2360457188       -2.0753924387        1.9231122280
 C         -4.6799331752       -2.6405202289        0.7339744729
 C         -2.0144621810       -1.3410430677       -0.0810460188
 C         -0.6593757959       -1.0216904400        0.0247765621
 C         -0.1942030087        0.3483065386        0.1949957325
 C         -1.0744535205        1.4225728089        0.3405783646
 C         -0.6136468442        2.7213779330        0.4831989428
 N         -1.5314294060        3.7817644332        0.6150891585
 C         -2.4353361867        4.0767794728       -0.4102493804
 C         -2.4709756342        3.3626102800       -1.6014778067
 C         -3.3792899533        3.6857459054       -2.5981343375
 C         -4.2592835819        4.7348551489       -2.4273988230
 C         -4.2147995397        5.4789152389       -1.2579888782
 C         -3.3099243710        5.1619111647       -0.2618852861
 O         -3.3047445734        5.9674506920        0.8487988407
 C         -2.4083669675        5.6690026056        1.8439229237
 C         -2.4221084964        6.4808200209        2.9629369003
 C         -1.5692009333        6.2229325325        4.0256760838
 C         -0.7200379436        5.1366552471        3.9672544720
 C         -0.7012513047        4.3204687206        2.8465181044
 C         -1.5235129725        4.5860718501        1.7586639998
 C          0.7604470853        2.9792246190        0.4932109173
 C          1.6430099812        1.9349846262        0.3740442492
 C          1.1880914317        0.6203366649        0.2290320307
 C          2.1477067389       -0.4545706232        0.1286299214
 N          3.4350144216       -0.1684354679        0.1554686105
 C          4.3071573575       -1.1853014389        0.0814102263
 C          5.6903350393       -0.9187402807        0.0929828363
 H          7.0911879105       -0.4318020662       -2.1343682359
 H          8.0107077777        1.5983849107       -3.1734479632
 H         10.0013952309        2.6894503213       -2.2139571604
 H         11.0936575402        1.7317264449       -0.2198656264
 H         10.1736708503       -0.3220964363        0.8174172170
 H          6.8696791508       -4.0798912604       -0.0445229237
 H          4.4323990886       -4.5964340860       -0.1086492326
 H          0.5803175346       -4.1715634524       -0.2488391322
 H         -1.8437338703       -4.7075871244       -0.3959485034
 H         -2.5134722439       -3.5434875776       -2.5871304233
 H         -3.4709544056       -4.6377240765       -4.5524035765
 H         -5.8669049181       -5.2645051668       -4.5875507366
 H         -7.2895892187       -4.7270919708       -2.6217016182
 H         -7.9544039372       -2.9534274303        1.5221899154
 H         -7.1560798551       -1.8801314668        3.6174547942
 H         -4.7475755973       -1.3571021921        3.8643244630
 H         -3.1873701383       -1.8581329192        2.0527158212
 H         -2.7670660481       -0.5688667308       -0.0606359128
 H         -2.1411298310        1.2642581757        0.3578414379
 H         -1.7757165219        2.5531544722       -1.7600162664
 H         -3.3862402261        3.1093026686       -3.5104259395
 H         -4.9703845015        4.9879439948       -3.1976683823
 H         -4.8726075276        6.3185633306       -1.1002755809
 H         -3.1132415625        7.3082239041        2.9842263414
 H         -1.5840099794        6.8638974325        4.8928772512
 H         -0.0652870440        4.9097161614        4.7944717148
 H         -0.0447429335        3.4648304642        2.8225899577
 H          1.1116832201        3.9952611124        0.5921075001
 H          2.7086589248        2.1002865673        0.3823268805
 H          6.0109761599        0.1083942251        0.1778832602
