  61
        -95.41042358
 C          1.5581790084       -2.0327610204       -1.9420199791
 C          0.4604743635       -1.4209607061       -1.3957968880
 C          0.5870504055       -0.3681745051       -0.4370207026
 C         -0.5388612507        0.2469151132        0.1613884647
 C         -0.4227944220        1.4238575722        0.9879321227
 N         -1.4297277328        1.9881754795        1.5689455307
 C         -2.6753161270        1.5758096574        1.4083777708
 C         -2.9457810176        0.5329935574        0.4684478152
 N         -4.2661005636        0.1622620737        0.2424577408
 C         -5.3069140241        1.0337738372       -0.0080944549
 C         -5.2804436403        2.4120974367       -0.1670444527
 C         -6.4763449797        3.0512636274       -0.4400347445
 C         -7.6668953866        2.3399319570       -0.5650821157
 C         -7.6946075561        0.9632052265       -0.4295461701
 C         -6.5085718196        0.3006434279       -0.1521923085
 C         -6.1645591545       -1.0840670648        0.0324699427
 C         -6.8982074632       -2.2605409213        0.0159569908
 C         -6.2410604521       -3.4535994827        0.2585467598
 C         -4.8756143823       -3.4792791290        0.5298281071
 C         -4.1223814208       -2.3190529061        0.5490257180
 C         -4.7712033538       -1.1223353338        0.2799768142
 C         -1.8921110750       -0.1173384148       -0.1155826037
 C          1.9123163422       -0.0142717733       -0.0784203542
 C          3.0051145337       -0.6272506849       -0.6451627768
 N          4.2976120332       -0.2096188599       -0.2928196170
 C          4.7409430257        1.0941945056       -0.2785555791
 C          4.0694226695        2.2596450630       -0.6252404315
 C          4.7623943656        3.4524988963       -0.5423532813
 C          6.0935098215        3.4927647814       -0.1338899334
 C          6.7758527355        2.3333744598        0.1871232823
 C          6.1016518591        1.1239741188        0.1113979942
 C          6.4861219872       -0.2421874743        0.3431156791
 C          7.6648579518       -0.8482165296        0.7500831235
 C          7.6858241563       -2.2235926221        0.8953322255
 C          6.5467766667       -2.9884738700        0.6551570517
 C          5.3595989821       -2.4071386289        0.2515730496
 C          5.3391250843       -1.0291836240        0.0786156990
 C          2.8504823306       -1.6492193575       -1.5980236110
 H          1.4206794402       -2.8218439936       -2.6678204293
 H         -0.5193735478       -1.7562572585       -1.6943267133
 H          0.5227110735        1.9341644457        1.0903537975
 H         -3.4425183250        1.9887172406        2.0403847089
 H         -4.3570867793        2.9648075313       -0.0872208389
 H         -6.4850238958        4.1235893709       -0.5641667372
 H         -8.5801383267        2.8740501474       -0.7797436317
 H         -8.6168895850        0.4137116956       -0.5403973306
 H         -7.9595958809       -2.2416511776       -0.1788629459
 H         -6.7945470013       -4.3803964360        0.2488445814
 H         -4.3940207811       -4.4236969521        0.7338794916
 H         -3.0689941188       -2.3443991382        0.7816418303
 H         -2.1053812156       -0.8940148998       -0.8322238992
 H          2.0856162651        0.7301755157        0.6816207936
 H          3.0441768522        2.2326447649       -0.9609509785
 H          4.2616199108        4.3728712541       -0.8032815925
 H          6.5995824702        4.4447544915       -0.0779673459
 H          7.8124763023        2.3652280204        0.4864260882
 H          8.5445646108       -0.2559979091        0.9517543151
 H          8.5948180645       -2.7147038935        1.2087007062
 H          6.5908249650       -4.0586159142        0.7923262955
 H          4.4745188283       -3.0017622708        0.0857600030
 H          3.7130889243       -2.0852989441       -2.0743236243
  61
        -95.40975719
 C          2.7373567065        3.5317691113       -1.5663039506
 C          1.3738721644        3.4216607369       -1.6477453100
 C          0.6861387524        2.2499166319       -1.2070694525
 C         -0.7265915506        2.1615591278       -1.2236073333
 C         -1.5418730703        3.0838585569       -1.9768469519
 N         -2.8335638888        3.0459191028       -1.9870343023
 C         -3.5309843334        2.1229540141       -1.3470891313
 C         -2.8385494828        1.0526959681       -0.6983900968
 N         -3.5838296399        0.0613216922       -0.0708244367
 C         -4.6589566230       -0.6017228876       -0.6277392178
 C         -5.1716568005       -0.5192732686       -1.9145458484
 C         -6.2560562132       -1.3191006422       -2.2273160033
 C         -6.8095062084       -2.1891401421       -1.2915072224
 C         -6.2878780250       -2.2910931730       -0.0140082044
 C         -5.2035068711       -1.4958781641        0.3243490781
 C         -4.4150537160       -1.3478725057        1.5186430617
 C         -4.4642714112       -1.9347701870        2.7740663126
 C         -3.5460309100       -1.5343686910        3.7281839364
 C         -2.5993418799       -0.5531943274        3.4464642018
 C         -2.5290298150        0.0445393647        2.2007069318
 C         -3.4308192021       -0.3714894890        1.2318844892
 C         -1.4717060086        1.0942887616       -0.6346466911
 C          1.4999105476        1.2019076024       -0.7032570324
 C          2.8676883884        1.3252944003       -0.6327858352
 N          3.6361998494        0.2597107402       -0.1358097256
 C          4.5971302672        0.3563188097        0.8444143608
 C          4.9839174730        1.4602266141        1.5936785060
 C          5.9729433047        1.2804738221        2.5421336885
 C          6.5585651621        0.0342191174        2.7539650595
 C          6.1612207548       -1.0737433566        2.0272592784
 C          5.1721083636       -0.9180979284        1.0678954405
 C          4.5144317396       -1.8220670320        0.1633885597
 C          4.6506419221       -3.1762930537       -0.1029032056
 C          3.8547120228       -3.7415662152       -1.0823014774
 C          2.9431590722       -2.9706479160       -1.7999691393
 C          2.7890245456       -1.6196959035       -1.5527803062
 C          3.5708614917       -1.0497818679       -0.5564518976
 C          3.5173674571        2.4937438000       -1.0644271925
 H          3.2213466895        4.4359065845       -1.9071043522
 H          0.8087123344        4.2516673838       -2.0396391212
 H         -1.0876403296        3.8021467118       -2.6415585502
 H         -4.5970588523        2.2459341214       -1.2641663230
 H         -4.7353141906        0.1419908617       -2.6473079196
 H         -6.6772340523       -1.2723871449       -3.2201964729
 H         -7.6541710847       -2.7994427722       -1.5737662317
 H         -6.7113248680       -2.9759709245        0.7046991997
 H         -5.2076159013       -2.6837498362        2.9999297002
 H         -3.5682301443       -1.9791841375        4.7115390594
 H         -1.9080055351       -0.2476023305        4.2171665204
 H         -1.8071054734        0.8202115411        1.9973899090
 H         -0.9578321738        0.2843447561       -0.1422392568
 H          1.0519157297        0.2887453121       -0.3457274330
 H          4.5195505935        2.4229826570        1.4452720508
 H          6.2960119733        2.1234637485        3.1348186310
 H          7.3285740850       -0.0659502642        3.5041497961
 H          6.6066801166       -2.0411590770        2.2034989177
 H          5.3695453900       -3.7716045416        0.4392316481
 H          3.9454437278       -4.7941069838       -1.3043984326
 H          2.3450258828       -3.4383988359       -2.5679323419
 H          2.0924483907       -1.0241296149       -2.1227191788
 H          4.5929586120        2.5571816985       -1.0442957611
  61
        -95.40971681
 C          1.5518919405       -2.3937027160       -1.4506250111
 C          0.4606974080       -1.7751208055       -0.8976878137
 C          0.5941360009       -0.6201618965       -0.0681317551
 C         -0.5341370686       -0.0060134702        0.5324054636
 C         -0.4247812603        1.0596410851        1.4958085869
 N         -1.4470865892        1.6016859514        2.0725894598
 C         -2.6940155363        1.2812925752        1.7733057635
 C         -2.9407173369        0.3772865236        0.6921610287
 N         -4.2516478985        0.1366959417        0.3027080334
 C         -5.2054679617        1.1086710653        0.0735537703
 C         -5.0816308221        2.4898770446        0.1190634675
 C         -6.1996610596        3.2466571466       -0.1834801874
 C         -7.4066490323        2.6480087571       -0.5352809717
 C         -7.5292232577        1.2713231471       -0.6031418944
 C         -6.4230229491        0.4915721965       -0.3004631887
 C         -6.1821513491       -0.9264476348       -0.2847587617
 C         -6.9737929665       -2.0331155205       -0.5526018223
 C         -6.4168985058       -3.2927604223       -0.4201946860
 C         -5.0958430782       -3.4553935792       -0.0112782449
 C         -4.2857797406       -2.3664288498        0.2583211690
 C         -4.8304826026       -1.1002927926        0.0997813977
 C         -1.8755844405       -0.2642346733        0.1186309513
 C          1.9160459172       -0.1631344254        0.1495726045
 C          3.0002368552       -0.7779021438       -0.4339244476
 N          4.2835557792       -0.2396310550       -0.2496675336
 C          4.6296481327        1.0782392365       -0.4484610862
 C          3.8478204759        2.1404606155       -0.8844851576
 C          4.4557108954        3.3736542348       -1.0245740504
 C          5.8092268156        3.5521749026       -0.7482601438
 C          6.5989663301        2.4930796712       -0.3384155750
 C          6.0117172970        1.2456570513       -0.1905512764
 C          6.5126456714       -0.0492048418        0.1844944760
 C          7.7612601378       -0.5197636003        0.5607510680
 C          7.8941799299       -1.8584187069        0.8830038372
 C          6.7988325052       -2.7182132791        0.8473414791
 C          5.5437959184       -2.2723021578        0.4781722655
 C          5.4087409041       -0.9345669226        0.1297179841
 C          2.8405917628       -1.9113399513       -1.2478166925
 H          1.4101546524       -3.2698546360       -2.0676806738
 H         -0.5157524903       -2.2016529758       -1.0618770236
 H          0.5348471979        1.4847568998        1.7469598940
 H         -3.4875193514        1.6534670577        2.3981479716
 H         -4.1430584998        2.9575114881        0.3737489211
 H         -6.1319867522        4.3235512554       -0.1515665451
 H         -8.2567678752        3.2718901955       -0.7665845835
 H         -8.4627968988        0.8114349681       -0.8891077997
 H         -8.0027650860       -1.9106381283       -0.8542466414
 H         -7.0165937214       -4.1664697165       -0.6260359388
 H         -4.6955029401       -4.4515226009        0.1021172184
 H         -3.2699102258       -2.4995862327        0.5969780600
 H         -2.0588165133       -0.9149311697       -0.7220760190
 H          2.0980989167        0.6900483701        0.7824633266
 H          2.8032305684        2.0039606112       -1.1182223388
 H          3.8689782331        4.2158126453       -1.3599953441
 H          6.2470650487        4.5318538946       -0.8670279885
 H          7.6513094355        2.6304761925       -0.1412456658
 H          8.6086627837        0.1475601062        0.6032843275
 H          8.8588156668       -2.2446507287        1.1760837830
 H          6.9322610062       -3.7546303254        1.1191767419
 H          4.6941907170       -2.9375448266        0.4694161095
 H          3.6928877675       -2.3595583539       -1.7315545564
  61
        -95.40965457
 C          1.4882944450       -0.7256097119       -2.7252807377
 C          0.4142180194       -0.5379643727       -1.8947650697
 C          0.5758187798       -0.1280539580       -0.5372431914
 C         -0.5344533734        0.1178050043        0.3081232604
 C         -0.3961963048        0.5658698559        1.6718454645
 N         -1.4011930392        0.8640088219        2.4285432190
 C         -2.6579384223        0.7200189840        2.0456080096
 C         -2.9323195794        0.1097009330        0.7812147615
 N         -4.2535805230       -0.1088899010        0.4141366474
 C         -4.8326373863        0.2555493640       -0.7857087354
 C         -4.2721023655        0.9084657673       -1.8740537061
 C         -5.0865911414        1.1620820468       -2.9636825173
 C         -6.4268735640        0.7851556882       -2.9703024296
 C         -6.9984439312        0.1596147734       -1.8763124343
 C         -6.2025077599       -0.1023081418       -0.7713310490
 C         -6.4543930103       -0.7013297955        0.5119820672
 C         -7.5804825338       -1.2491328858        1.1076433174
 C         -7.4662137858       -1.7688817274        2.3851668662
 C         -6.2482906933       -1.7589337466        3.0599450416
 C         -5.1102600827       -1.2218644330        2.4845748533
 C         -5.2248785963       -0.6786096566        1.2129982295
 C         -1.8853967428       -0.1645320777       -0.0577608343
 C          1.9130003158        0.0534590425       -0.1020587075
 C          2.9821525910       -0.1398875509       -0.9474035724
 N          4.2875599697        0.0658710589       -0.4692474915
 C          4.7289257520        1.1805079383        0.2069543712
 C          4.0446774376        2.3446886263        0.5334196562
 C          4.7380865369        3.3332026281        1.2054819675
 C          6.0814677022        3.1795723964        1.5402167067
 C          6.7754878003        2.0337140615        1.1957652126
 C          6.1011842253        1.0272742082        0.5212993993
 C          6.4940193529       -0.2552152310        0.0028488112
 C          7.6847657974       -0.9655019159        0.0080941674
 C          7.7107863688       -2.2181009941       -0.5783738416
 C          6.5652718035       -2.7673886095       -1.1498078959
 C          5.3664956142       -2.0798440540       -1.1656177065
 C          5.3399123888       -0.8105410665       -0.6015072591
 C          2.7924371501       -0.5334367840       -2.2802746739
 H          1.3215048040       -1.0192408985       -3.7521324662
 H         -0.5764807182       -0.6827295260       -2.2943480839
 H          0.5734210631        0.6207533859        2.1423046572
 H         -3.4374873642        1.1340100124        2.6614939141
 H         -3.2404413586        1.2247827832       -1.8663237619
 H         -4.6739400405        1.6668881377       -3.8240867501
 H         -7.0298070158        0.9962233519       -3.8405860825
 H         -8.0415759353       -0.1174598761       -1.8783631809
 H         -8.5232913687       -1.2700737128        0.5828458667
 H         -8.3322054969       -2.1975210566        2.8665947431
 H         -6.1882959250       -2.1836937784        4.0504975127
 H         -4.1644550509       -1.2302860098        3.0043206253
 H         -2.0955819542       -0.6618939522       -0.9911799654
 H          2.1192042598        0.3162533795        0.9225543576
 H          3.0087746867        2.4763645117        0.2616405780
 H          4.2277426756        4.2460912816        1.4739103064
 H          6.5876874536        3.9733858296        2.0685834371
 H          7.8207268764        1.9236738737        1.4418185841
 H          8.5696524427       -0.5488944041        0.4647890860
 H          8.6289193482       -2.7860612497       -0.5866413203
 H          6.6135702177       -3.7543808230       -1.5850903358
 H          4.4770674743       -2.5175685047       -1.5919123693
 H          3.6350455098       -0.6449466918       -2.9426985491
  61
        -95.40958343
 C          2.7674125972        3.1392467039       -2.2959854495
 C          1.3977934062        3.0871701494       -2.2820554081
 C          0.6894102941        2.0651276571       -1.5803999643
 C         -0.7224865361        2.0497640848       -1.4809724770
 C         -1.5618587564        3.0237435875       -2.1370336522
 N         -2.8416326410        3.0848515553       -1.9693979664
 C         -3.5139773712        2.2138062927       -1.2378796366
 C         -2.8284925177        1.0698489902       -0.7176042381
 N         -3.5562254894        0.1046618563       -0.0346394933
 C         -4.7654004186       -0.4247941297       -0.4415572274
 C         -5.4712333704       -0.2076146479       -1.6164804568
 C         -6.6648013326       -0.8862190317       -1.7855361743
 C         -7.1394249416       -1.7709600428       -0.8207967042
 C         -6.4261631264       -2.0116500942        0.3401245482
 C         -5.2294031521       -1.3389091667        0.5339803350
 C         -4.2450947759       -1.3494921879        1.5830186287
 C         -4.1420507349       -2.0296878963        2.7869662360
 C         -3.0451611452       -1.7848755085        3.5936921332
 C         -2.0721306483       -0.8616820538        3.2207374184
 C         -2.1534215141       -0.1719762520        2.0241352673
 C         -3.2342839254       -0.4373645769        1.1953090676
 C         -1.4655912779        1.0127341009       -0.8364398912
 C          1.4912814048        1.0977445525       -0.9197916407
 C          2.8647522240        1.1671051462       -0.9374415665
 N          3.6133478308        0.1993464203       -0.2468146567
 C          4.6071831549        0.4623972994        0.6677702790
 C          5.0664677174        1.6841113767        1.1428699244
 C          6.0734077002        1.6696186728        2.0891149406
 C          6.6077173020        0.4735969193        2.5632771169
 C          6.1383785501       -0.7464903366        2.1113068327
 C          5.1288565026       -0.7580793955        1.1607723160
 C          4.4016689315       -1.8056964932        0.4963742706
 C          4.4632600289       -3.1904231176        0.5409721868
 C          3.6079635766       -3.9173521426       -0.2669100807
 C          2.7112174005       -3.2793655858       -1.1210693426
 C          2.6308571496       -1.9011378795       -1.1830891196
 C          3.4723186516       -1.1652150832       -0.3588086056
 C          3.5344464534        2.1877726467       -1.6301793836
 H          3.2653376065        3.9275974907       -2.8422488476
 H          0.8486688960        3.8409123147       -2.8219132231
 H         -1.1502532761        3.7130024548       -2.8577488699
 H         -4.5400903227        2.4266213033       -0.9926897497
 H         -5.0990344445        0.4630006811       -2.3754894082
 H         -7.2368467084       -0.7300349913       -2.6875536251
 H         -8.0748334030       -2.2829432921       -0.9890417330
 H         -6.7895192748       -2.7084685496        1.0799041330
 H         -4.9049022548       -2.7319954721        3.0862721019
 H         -2.9450625923       -2.3064730511        4.5334905090
 H         -1.2381775417       -0.6750683563        3.8804509367
 H         -1.4086095152        0.5614078717        1.7569737647
 H         -0.9591309069        0.1313845686       -0.4769731742
 H          1.0325383011        0.3122563013       -0.3414262683
 H          4.6417851520        2.6120118038        0.7917304609
 H          6.4507424669        2.6055510242        2.4732347631
 H          7.3939177423        0.5037341186        3.3026457572
 H          6.5440343446       -1.6716881794        2.4916622166
 H          5.1689911550       -3.6870102406        1.1896177718
 H          3.6389349115       -4.9963390084       -0.2451927684
 H          2.0671279523       -3.8747138486       -1.7509052427
 H          1.9461336194       -1.4112114433       -1.8583381159
 H          4.6112147197        2.2030883728       -1.6711439917
  61
        -95.40955024
 C          1.5235212574       -1.3606450020       -2.4722246219
 C          0.4412869529       -1.0266768135       -1.6993143509
 C          0.5903040706       -0.3363303548       -0.4606776779
 C         -0.5219424172       -0.0521507010        0.3723830574
 C         -0.3844949240        0.4684155297        1.7080651061
 N         -1.3854626685        0.6488021989        2.5066814676
 C         -2.6394541089        0.4378479204        2.1449876461
 C         -2.9240246344        0.0937440176        0.7861713152
 N         -4.2480768903       -0.0477887850        0.3940796702
 C         -5.2710644895        0.8317976588        0.6886062205
 C         -5.2181084046        2.0560731187        1.3389573280
 C         -6.4012324079        2.7591677997        1.4855314240
 C         -7.6035435994        2.2662059536        0.9855580546
 C         -7.6579022463        1.0561001495        0.3161156358
 C         -6.4859498334        0.3307452889        0.1618054147
 C         -6.1697269769       -0.9210649440       -0.4715052318
 C         -6.9252190068       -1.8693408406       -1.1449945021
 C         -6.2918481815       -3.0040493045       -1.6207709384
 C         -4.9292412559       -3.2055962412       -1.4183578410
 C         -4.1544523187       -2.2723736888       -0.7514813096
 C         -4.7785097472       -1.1198686037       -0.2970755735
 C         -1.8770276786       -0.1562644142       -0.0613776871
 C          1.9149760689        0.0081863046       -0.0976050303
 C          2.9928285833       -0.3324944585       -0.8845792134
 N          4.2871820210        0.0205595827       -0.4685477922
 C          5.2386716687        0.6509731427       -1.2368034692
 C          5.1496953117        1.1243522458       -2.5398144356
 C          6.2589644629        1.7510691451       -3.0751335488
 C          7.4277416924        1.9166059695       -2.3357299387
 C          7.5142826203        1.4706558371       -1.0291151552
 C          6.4147133250        0.8379816877       -0.4701326507
 C          6.1422939302        0.2849889077        0.8292178570
 C          6.8877032064        0.1613436595        1.9917165815
 C          6.3081802324       -0.4527532804        3.0874243102
 C          5.0104924757       -0.9552826663        3.0258347045
 C          4.2487951426       -0.8462312175        1.8778881102
 C          4.8148683775       -0.2058834133        0.7825964348
 C          2.8193766091       -1.0300141244       -2.0887464934
 H          1.3712579029       -1.9042192444       -3.3941138637
 H         -0.5412846498       -1.3282392148       -2.0253731744
 H          0.5789014287        0.7679723084        2.0912071276
 H         -3.4050500591        0.4554382991        2.9012879055
 H         -4.2851740481        2.4499146992        1.7116160753
 H         -6.3892204235        3.7118192894        1.9929372682
 H         -8.5056542214        2.8444566509        1.1171128890
 H         -8.5898768271        0.6833790935       -0.0804844244
 H         -7.9848329864       -1.7240612845       -1.2892747413
 H         -6.8629763637       -3.7530954665       -2.1481795584
 H         -4.4670247323       -4.1098606823       -1.7843866984
 H         -3.1041421036       -2.4463220033       -0.5758680832
 H         -2.0909920346       -0.3636065443       -1.0981220253
 H          2.0989338979        0.5922138240        0.7893808550
 H          4.2400663374        1.0155047738       -3.1098755771
 H          6.2171927618        2.1245911045       -4.0873362698
 H          8.2739170817        2.4100816807       -2.7896667845
 H          8.4153571886        1.6154953926       -0.4526530145
 H          7.8993654690        0.5350862170        2.0366269406
 H          6.8699671443       -0.5533908173        4.0038494014
 H          4.5906164135       -1.4426379770        3.8930750691
 H          3.2509590014       -1.2542289496        1.8300100953
 H          3.6726025548       -1.3284537311       -2.6755116224
  61
        -95.40949458
 C          1.5093833238       -1.4292153720       -2.4044334628
 C          0.4344726838       -1.1321228408       -1.6068427935
 C          0.5888332697       -0.4471299293       -0.3659693743
 C         -0.5243994106       -0.1682209301        0.4689959590
 C         -0.3917675336        0.3357715264        1.8105985171
 N         -1.3999947931        0.5402619543        2.5949769750
 C         -2.6543415213        0.3713541266        2.2127200023
 C         -2.9278659253        0.0328675366        0.8504936887
 N         -4.2469925127       -0.0677880371        0.4302687710
 C         -5.2426798987        0.8568029260        0.6759118380
 C         -5.1641646722        2.0833751367        1.3190824715
 C         -6.3199469978        2.8402141505        1.4052882845
 C         -7.5198184960        2.3953500517        0.8563756774
 C         -7.5985420591        1.1817918987        0.1955504100
 C         -6.4539576216        0.4043102394        0.0987070824
 C         -6.1646482630       -0.8635167162       -0.5149676898
 C         -6.9277787485       -1.7799766011       -1.2234162491
 C         -6.3214687675       -2.9405348999       -1.6710540859
 C         -4.9793798690       -3.1996116687       -1.4058694178
 C         -4.1968390596       -2.2984629165       -0.7044484109
 C         -4.7918781073       -1.1199343273       -0.2790014570
 C         -1.8752356132       -0.2459052308        0.0191278665
 C          1.9116455470       -0.0842105372       -0.0152286143
 C          2.9807317156       -0.3805637374       -0.8314825199
 N          4.2747364171        0.0108542473       -0.4491694582
 C          5.1690427634        0.6974797679       -1.2376259232
 C          5.0074919211        1.1998692009       -2.5226637464
 C          6.0692955521        1.8815160609       -3.0862754718
 C          7.2610170878        2.0730849650       -2.3910498688
 C          7.4190966403        1.5976715261       -1.1014986539
 C          6.3685543046        0.9086410809       -0.5152277600
 C          6.1724662145        0.3086323888        0.7770817761
 C          6.9728184271        0.1750700360        1.9012795591
 C          6.4650941128       -0.4963959820        2.9991013462
 C          5.1838025743       -1.0426284255        2.9776640394
 C          4.3675056777       -0.9233668452        1.8687826292
 C          4.8626308481       -0.2301053365        0.7714148675
 C          2.8018186432       -1.0634872216       -2.0434326687
 H          1.3541239453       -1.9691762427       -3.3278520764
 H         -0.5458708137       -1.4585305273       -1.9151544706
 H          0.5752576632        0.5961701068        2.2128201947
 H         -3.4314436442        0.4179300277        2.9560476650
 H         -4.2318884756        2.4392296751        1.7299136120
 H         -6.2879583448        3.7969712331        1.9040427004
 H         -8.4000067109        3.0146572820        0.9415722437
 H         -8.5275395884        0.8466222459       -0.2398256132
 H         -7.9724372284       -1.5901602659       -1.4167913977
 H         -6.8987228566       -3.6650440793       -2.2254285925
 H         -4.5399135539       -4.1235134905       -1.7502699519
 H         -3.1634439598       -2.5151465900       -0.4817466081
 H         -2.0808870084       -0.4482744146       -1.0202893146
 H          2.0977777077        0.4858943796        0.8806251929
 H          4.0793668915        1.0701811795       -3.0574919635
 H          5.9709821652        2.2786665540       -4.0854822925
 H          8.0682056513        2.6102929234       -2.8658631376
 H          8.3380363583        1.7616092819       -0.5593708733
 H          7.9718981043        0.5836491913        1.9146224903
 H          7.0718230094       -0.6088299047        3.8850386836
 H          4.8215232097       -1.5741427882        3.8449355005
 H          3.3822241997       -1.3632238873        1.8506492547
 H          3.6513893979       -1.3253658152       -2.6525555346
  61
        -95.40927448
 C          1.5384340193       -1.6104610604       -2.3323115261
 C          0.4584805697       -1.3136126283       -1.5406717916
 C          0.6037689928       -0.5925948978       -0.3209820266
 C         -0.5145896982       -0.3149596510        0.5101574837
 C         -0.3824831344        0.1409284551        1.8671867128
 N         -1.3948432819        0.3474557232        2.6463296574
 C         -2.6476308388        0.2286609328        2.2408902875
 C         -2.9143176481       -0.0584851292        0.8651416530
 N         -4.2302782459       -0.0889649398        0.4264831145
 C         -5.1880699779        0.8668831416        0.7035311591
 C         -5.0627347609        2.0615077979        1.3969818457
 C         -6.1866987863        2.8622405075        1.5094167353
 C         -7.4001503677        2.4912383038        0.9363984347
 C         -7.5247755160        1.3109437099        0.2243477013
 C         -6.4130211653        0.4904094026        0.1008557129
 C         -6.1723739847       -0.7613631838       -0.5638099333
 C         -6.9682855431       -1.6141255664       -1.3148250569
 C         -6.4082250228       -2.7800201099       -1.8070429634
 C         -5.0805082244       -3.1072879174       -1.5453025631
 C         -4.2659325666       -2.2704125296       -0.8010796421
 C         -4.8134215414       -1.0864000576       -0.3301618072
 C         -1.8590144481       -0.3469034354        0.0395355273
 C          1.9158317461       -0.1846782843        0.0142847802
 C          2.9889775218       -0.4739791980       -0.7999530659
 N          4.2704199718       -0.0218015852       -0.4441617331
 C          5.1286492870        0.6730266934       -1.2655277626
 C          4.9396765448        1.1124833515       -2.5697567294
 C          5.9655396461        1.8206992304       -3.1664114942
 C          7.1482354950        2.0990568002       -2.4853206625
 C          7.3323067900        1.6870262803       -1.1774908145
 C          6.3179633369        0.9733214547       -0.5579476225
 C          6.1532417717        0.4229794750        0.7605223345
 C          6.9594433089        0.3826488123        1.8877101405
 C          6.4857449850       -0.2600233947        3.0174708187
 C          5.2335300485       -0.8702898825        3.0247746185
 C          4.4123081919       -0.8444868804        1.9134386660
 C          4.8714376277       -0.1789298209        0.7837071759
 C          2.8222365659       -1.2017218945       -1.9872483673
 H          1.3939025745       -2.1808289494       -3.2390553392
 H         -0.5169443492       -1.6696120678       -1.8323417365
 H          0.5883169428        0.3515677458        2.2893186674
 H         -3.4334169533        0.2746694140        2.9751104554
 H         -4.1194283214        2.3610281303        1.8268143530
 H         -6.1177186426        3.7953801736        2.0475067816
 H         -8.2546109585        3.1422660011        1.0440831435
 H         -8.4639997676        1.0337862403       -0.2293286601
 H         -8.0021514787       -1.3713741549       -1.5068455910
 H         -7.0115006801       -3.4553765084       -2.3948387128
 H         -4.6780266992       -4.0337579632       -1.9259321542
 H         -3.2444256653       -2.5403313649       -0.5818581882
 H         -2.0511393382       -0.5096307397       -1.0097647034
 H          2.0857564844        0.4237871891        0.8880429903
 H          4.0174292037        0.9162683088       -3.0943144098
 H          5.8451086916        2.1704931051       -4.1808115988
 H          7.9270031301        2.6545250037       -2.9858890362
 H          8.2430454114        1.9189827472       -0.6465178323
 H          7.9368243684        0.8407542339        1.8793659539
 H          7.0972582958       -0.2995698605        3.9063161364
 H          4.8985635247       -1.3779643130        3.9169250592
 H          3.4503055824       -1.3335114763        1.9185635616
 H          3.6759982731       -1.4611874494       -2.5916388597
  61
        -95.40923986
 C          2.6545233441        3.1096082314       -2.4542290185
 C          1.3095950281        3.2044386771       -2.1973714552
 C          0.6517553819        2.2723166242       -1.3484110266
 C         -0.7373592425        2.3252346128       -1.0573369052
 C         -1.5602540534        3.4724564119       -1.3308333425
 N         -2.8065143657        3.5387561934       -0.9895737836
 C         -3.4555916606        2.5277119717       -0.4382805190
 C         -2.8036955630        1.2569304172       -0.3189267071
 N         -3.5209190600        0.1596142788        0.1301463069
 C         -4.7921350257       -0.1937445912       -0.2822326471
 C         -5.6071009086        0.4010232936       -1.2340118955
 C         -6.8430455049       -0.1742357772       -1.4756728550
 C         -7.2534063918       -1.3205635750       -0.8004155777
 C         -6.4335501426       -1.9336913081        0.1304717816
 C         -5.1918693989       -1.3730415492        0.3922030522
 C         -4.1012975949       -1.7408103581        1.2530059509
 C         -3.8972142963       -2.7871621440        2.1410419942
 C         -2.7041970903       -2.8396821811        2.8397915892
 C         -1.7334573222       -1.8547963414        2.6788949175
 C         -1.9160859334       -0.8007564601        1.7997822239
 C         -3.0938154661       -0.7624423082        1.0679736610
 C         -1.4646419867        1.1878080715       -0.6024964159
 C          1.4623270185        1.2759884260       -0.7559437470
 C          2.8137033458        1.1991701249       -1.0113688814
 N          3.5739119694        0.2075978121       -0.3731848563
 C          4.7672848464        0.4065228570        0.2858083212
 C          5.4876844343        1.5784349294        0.4788298098
 C          6.6651817167        1.5016671486        1.1985598189
 C          7.1155721054        0.2954374930        1.7298585912
 C          6.3867788526       -0.8690850338        1.5698453329
 C          5.2028219096       -0.8171385739        0.8500422502
 C          4.2044808159       -1.7959855446        0.5150636910
 C          4.0663856246       -3.1495533606        0.7833532767
 C          2.9570045073       -3.8123150891        0.2911596478
 C          2.0077176235       -3.1458749657       -0.4801962244
 C          2.1263837024       -1.7985292770       -0.7637448407
 C          3.2185249362       -1.1171535074       -0.2410180970
 C          3.4322713819        2.1048593499       -1.8867468801
 H          3.1201599542        3.8170770662       -3.1254870122
 H          0.7361386561        3.9775589380       -2.6832773655
 H         -1.1634279395        4.3244134378       -1.8615315638
 H         -4.4313033845        2.7085372706       -0.0212685568
 H         -5.2857042049        1.2763183572       -1.7768518657
 H         -7.4985191633        0.2730599621       -2.2071647331
 H         -8.2236170392       -1.7416292015       -1.0171826640
 H         -6.7483423502       -2.8308820378        0.6410567872
 H         -4.6559524618       -3.5415793844        2.2817763298
 H         -2.5250780788       -3.6484813684        3.5320686574
 H         -0.8212714823       -1.9095956407        3.2535757137
 H         -1.1713816202       -0.0261058983        1.7059216915
 H         -0.9783093286        0.2249591799       -0.5740561348
 H          1.0366152971        0.6039856166       -0.0279941430
 H          5.1332810144        2.5208574235        0.0912529094
 H          7.2453401405        2.3983167294        1.3576270086
 H          8.0419675341        0.2755129443        2.2838970851
 H          6.7273846525       -1.7996330372        1.9980958606
 H          4.8122693660       -3.6718283519        1.3629450686
 H          2.8266233122       -4.8643283953        0.4955590105
 H          1.1621450506       -3.6942918311       -0.8680588808
 H          1.4005954896       -1.2958205281       -1.3839078410
 H          4.4756873116        1.9987405863       -2.1342906235
  61
        -95.40864093
 C          2.6655627508       -3.7091589949        1.3960853114
 C          1.3067982927       -3.5646843752        1.5058865413
 C          0.6450065084       -2.3749071490        1.0815158818
 C         -0.7556101935       -2.2036281088        1.2067269157
 C         -1.5373616475       -2.9777780459        2.1361238799
 N         -2.8001418607       -2.7853739628        2.3361139774
 C         -3.4866701027       -1.8301387268        1.7281339271
 C         -2.8065357985       -0.9340533135        0.8472601535
 N         -3.5396580761        0.0668958533        0.2172184769
 C         -4.3393625868        0.9892200997        0.8585696540
 C         -4.5423012882        1.1758436013        2.2180958539
 C         -5.3700400446        2.2141605149        2.6067380016
 C         -5.9735785798        3.0486538289        1.6694054733
 C         -5.7642085250        2.8729606937        0.3125399128
 C         -4.9394274539        1.8380083524       -0.1021221696
 C         -4.4833808914        1.3816295452       -1.3881946117
 C         -4.7276116276        1.7885621784       -2.6913165794
 C         -4.1238878804        1.0947489902       -3.7254014607
 C         -3.2935065485        0.0055752310       -3.4741218732
 C         -3.0309061141       -0.4166452382       -2.1827633640
 C         -3.6213238430        0.2853721018       -1.1421841657
 C         -1.4816513191       -1.1447835154        0.5805761373
 C          1.4707296458       -1.3564136283        0.5406118946
 C          2.8342973165       -1.5089092137        0.4553398268
 N          3.6142080145       -0.4553381256       -0.0551335980
 C          3.4159267304        0.1873055961       -1.2539929813
 C          2.4974079846       -0.0874798368       -2.2591444087
 C          2.5248938568        0.7053052960       -3.3905717579
 C          3.4443574302        1.7431285715       -3.5277213615
 C          4.3726550801        2.0107499044       -2.5377177390
 C          4.3651935089        1.2293460106       -1.3922182676
 C          5.1632872588        1.2093467650       -0.1959066442
 C          6.2097945107        1.9892292087        0.2725839648
 C          6.7365621078        1.7095004994        1.5207750500
 C          6.2273174747        0.6738966402        2.3012153153
 C          5.1852954268       -0.1174271640        1.8569139572
 C          4.6627989263        0.1488805776        0.5979589515
 C          3.4624538617       -2.6892155439        0.8814954247
 H          3.1327542411       -4.6300069598        1.7149459007
 H          0.7229031767       -4.3792584257        1.9042271785
 H         -1.0617657142       -3.7030929201        2.7782997154
 H         -4.5564033849       -1.8092482145        1.8454486966
 H         -4.0638113809        0.5373047832        2.9447997824
 H         -5.5476548430        2.3827764593        3.6580590912
 H         -6.6121391083        3.8492606358        2.0111645502
 H         -6.2268820350        3.5289545385       -0.4089257536
 H         -5.3800171546        2.6247193265       -2.8914583919
 H         -4.3046896340        1.3950166714       -4.7464924645
 H         -2.8484066090       -0.5232547640       -4.3033741086
 H         -2.3998560248       -1.2711383923       -1.9916038892
 H         -0.9820553992       -0.4806943626       -0.1072731317
 H          1.0410139534       -0.4154663540        0.2353884016
 H          1.7932611753       -0.8995930062       -2.1601232189
 H          1.8203130944        0.5155402610       -4.1866314872
 H          3.4341112115        2.3409772380       -4.4267215558
 H          5.0926581526        2.8065928720       -2.6539289177
 H          6.5972829740        2.8022019082       -0.3225991516
 H          7.5506007163        2.3066018570        1.9035373551
 H          6.6528816797        0.4887690642        3.2761964163
 H          4.7808892750       -0.9085231357        2.4694929851
 H          4.5294764132       -2.8043177235        0.7820588707
