  61
        -95.41042358
 C          1.5581790084       -2.0327610204       -1.9420199791
 C          0.4604743635       -1.4209607061       -1.3957968880
 C          0.5870504055       -0.3681745051       -0.4370207026
 C         -0.5388612507        0.2469151132        0.1613884647
 C         -0.4227944220        1.4238575722        0.9879321227
 N         -1.4297277328        1.9881754795        1.5689455307
 C         -2.6753161270        1.5758096574        1.4083777708
 C         -2.9457810176        0.5329935574        0.4684478152
 N         -4.2661005636        0.1622620737        0.2424577408
 C         -5.3069140241        1.0337738372       -0.0080944549
 C         -5.2804436403        2.4120974367       -0.1670444527
 C         -6.4763449797        3.0512636274       -0.4400347445
 C         -7.6668953866        2.3399319570       -0.5650821157
 C         -7.6946075561        0.9632052265       -0.4295461701
 C         -6.5085718196        0.3006434279       -0.1521923085
 C         -6.1645591545       -1.0840670648        0.0324699427
 C         -6.8982074632       -2.2605409213        0.0159569908
 C         -6.2410604521       -3.4535994827        0.2585467598
 C         -4.8756143823       -3.4792791290        0.5298281071
 C         -4.1223814208       -2.3190529061        0.5490257180
 C         -4.7712033538       -1.1223353338        0.2799768142
 C         -1.8921110750       -0.1173384148       -0.1155826037
 C          1.9123163422       -0.0142717733       -0.0784203542
 C          3.0051145337       -0.6272506849       -0.6451627768
 N          4.2976120332       -0.2096188599       -0.2928196170
 C          4.7409430257        1.0941945056       -0.2785555791
 C          4.0694226695        2.2596450630       -0.6252404315
 C          4.7623943656        3.4524988963       -0.5423532813
 C          6.0935098215        3.4927647814       -0.1338899334
 C          6.7758527355        2.3333744598        0.1871232823
 C          6.1016518591        1.1239741188        0.1113979942
 C          6.4861219872       -0.2421874743        0.3431156791
 C          7.6648579518       -0.8482165296        0.7500831235
 C          7.6858241563       -2.2235926221        0.8953322255
 C          6.5467766667       -2.9884738700        0.6551570517
 C          5.3595989821       -2.4071386289        0.2515730496
 C          5.3391250843       -1.0291836240        0.0786156990
 C          2.8504823306       -1.6492193575       -1.5980236110
 H          1.4206794402       -2.8218439936       -2.6678204293
 H         -0.5193735478       -1.7562572585       -1.6943267133
 H          0.5227110735        1.9341644457        1.0903537975
 H         -3.4425183250        1.9887172406        2.0403847089
 H         -4.3570867793        2.9648075313       -0.0872208389
 H         -6.4850238958        4.1235893709       -0.5641667372
 H         -8.5801383267        2.8740501474       -0.7797436317
 H         -8.6168895850        0.4137116956       -0.5403973306
 H         -7.9595958809       -2.2416511776       -0.1788629459
 H         -6.7945470013       -4.3803964360        0.2488445814
 H         -4.3940207811       -4.4236969521        0.7338794916
 H         -3.0689941188       -2.3443991382        0.7816418303
 H         -2.1053812156       -0.8940148998       -0.8322238992
 H          2.0856162651        0.7301755157        0.6816207936
 H          3.0441768522        2.2326447649       -0.9609509785
 H          4.2616199108        4.3728712541       -0.8032815925
 H          6.5995824702        4.4447544915       -0.0779673459
 H          7.8124763023        2.3652280204        0.4864260882
 H          8.5445646108       -0.2559979091        0.9517543151
 H          8.5948180645       -2.7147038935        1.2087007062
 H          6.5908249650       -4.0586159142        0.7923262955
 H          4.4745188283       -3.0017622708        0.0857600030
 H          3.7130889243       -2.0852989441       -2.0743236243
