  104
       -167.32143938
 C         12.7752637385       -5.3343281967       -0.6806508879
 O         12.9432848177       -4.1730401871        0.0972909188
 C         12.0016142174       -3.1926918156        0.0179705222
 C         10.8576330711       -3.2419856811       -0.7715541835
 C          9.9713842668       -2.1799779559       -0.7782805563
 C         10.1964264601       -1.0544157237        0.0073401245
 N          9.2989789794        0.0240209159       -0.0095992068
 C          9.8062950989        1.3324110781        0.0343883629
 C          9.1807637031        2.3113528682        0.7993162772
 C          9.6745212196        3.6022738048        0.8463816792
 C         10.8208548829        3.9382321097        0.1338897377
 O         11.3950601186        5.1724806728        0.1096703703
 C         10.7984076958        6.2078829864        0.8543534202
 C         11.4567393954        2.9533093558       -0.6254426476
 C         10.9564972490        1.6723170911       -0.6788872696
 C          7.9307206946       -0.1934581216       -0.0519832896
 C          7.3601686368       -1.3164079655        0.5559605637
 C          5.9988754952       -1.5171869059        0.5219808866
 C          5.1477617971       -0.6073022419       -0.1094954353
 C          3.6999902212       -0.8058496261       -0.1230399819
 C          3.1376590728       -2.0857543777       -0.1741233840
 C          1.7701566173       -2.2549600543       -0.1759525225
 C          0.9074188081       -1.1597396912       -0.1311658042
 C          1.4577796502        0.1295957502       -0.0861102971
 C          2.8358214111        0.2875086462       -0.0800634128
 C          0.6103006199        1.3416852540       -0.0446341665
 O          1.0932283088        2.4631952601       -0.0089632744
 C         -0.8426991772        1.1128136007       -0.0531225978
 C         -1.7036306813        2.2099000278       -0.0221268503
 C         -3.0711015980        2.0419797667       -0.0189367842
 C         -3.6334677730        0.7615705148       -0.0431335656
 C         -5.0822193224        0.5701835652       -0.0239135140
 C         -5.6519809439       -0.5056686426        0.6608961036
 C         -7.0156100905       -0.6834848531        0.7005007259
 C         -7.8712861672        0.2027744076        0.0370935379
 N         -9.2443695633        0.0232290485        0.0705012512
 C        -10.1140320962        1.1227747448       -0.0077261547
 C         -9.8318229532        2.3082358841        0.6730896482
 C        -10.6945132170        3.3776067559        0.5980733432
 C        -11.8722765296        3.2950238322       -0.1485038169
 O        -12.6552432476        4.4087927481       -0.1491057836
 C        -13.8606680232        4.3851538824       -0.8762545200
 C        -12.1606802252        2.1120504848       -0.8205242270
 C        -11.2861871488        1.0425553142       -0.7513930067
 C         -9.7953518425       -1.2630049909        0.1900145973
 C         -9.2569133001       -2.3379769597       -0.5089868167
 C         -9.7964195189       -3.6061738665       -0.3909442424
 C        -10.9018057564       -3.8221171280        0.4251004762
 O        -11.5135763472       -5.0234470424        0.6155360395
 C        -11.0002006334       -6.1543009761       -0.0475943936
 C        -11.4517950320       -2.7407342256        1.1173730204
 C        -10.9060765967       -1.4824291802        1.0058783730
 C         -7.3035975182        1.2744171446       -0.6604812253
 C         -5.9394207046        1.4556274380       -0.6805246445
 C         -2.7719739970       -0.3338013032       -0.0787461985
 C         -1.3934713502       -0.1768751357       -0.0860777110
 C         -0.5457833903       -1.3889301539       -0.1304979293
 O         -1.0282962261       -2.5107399134       -0.1620489663
 C          5.7232277500        0.5095106286       -0.7211626437
 C          7.0835540181        0.7120686639       -0.6998033264
 C         11.3430351053       -1.0100998311        0.8018417371
 C         12.2318573714       -2.0605214224        0.8029685698
 H         12.7552527866       -5.1023129005       -1.7505244358
 H         13.6400629892       -5.9596420161       -0.4645342304
 H         11.8620251099       -5.8731029074       -0.4072670536
 H         10.6464473430       -4.0966772149       -1.3944266018
 H          9.0925157473       -2.2239522259       -1.4047342728
 H          8.2961081827        2.0594612681        1.3654619840
 H          9.1586909531        4.3319122529        1.4502199506
 H         10.7883179783        5.9789628952        1.9249828970
 H          9.7771070570        6.4100815387        0.5154725745
 H         11.4158253219        7.0874572615        0.6804936233
 H         12.3440763666        3.2240059144       -1.1750203036
 H         11.4533778099        0.9220603880       -1.2753636627
 H          7.9975490189       -2.0191946195        1.0716371763
 H          5.5819635502       -2.3734635778        1.0310808278
 H          3.7817088723       -2.9503513294       -0.2326477583
 H          1.3335380991       -3.2419853632       -0.2171221490
 H          3.2229803999        1.2930223220       -0.0192271076
 H         -1.2654184235        3.1967003517        0.0065018802
 H         -3.7158948317        2.9068196420        0.0276512990
 H         -5.0151907806       -1.1892704801        1.2019168727
 H         -7.4358429074       -1.5064422330        1.2587633583
 H         -8.9314436634        2.3808847310        1.2647325833
 H        -10.4839225349        4.2961960156        1.1223195389
 H        -14.3137479405        5.3633229582       -0.7246173759
 H        -13.6823465337        4.2310618793       -1.9453891966
 H        -14.5391890691        3.6106271211       -0.5045052674
 H        -13.0592197397        2.0092842553       -1.4079060959
 H        -11.5173884826        0.1299062918       -1.2805696425
 H         -8.4045483458       -2.1800684441       -1.1533380648
 H         -9.3479440896       -4.4134354405       -0.9479984615
 H        -11.0572113901       -6.0430511950       -1.1352455886
 H         -9.9644850716       -6.3560093407        0.2442072248
 H        -11.6296129134       -6.9867748941        0.2622091479
 H        -12.3080307764       -2.9188612778        1.7481379774
 H        -11.3352280982       -0.6559250833        1.5521789935
 H         -7.9461753067        1.9571952134       -1.1959222842
 H         -5.5260580844        2.2755137519       -1.2490195745
 H         -3.1627509842       -1.3389283158       -0.1231401502
 H          5.0952114725        1.2103084137       -1.2499983884
 H          7.5094570949        1.5728787236       -1.1930504530
 H         11.5302115145       -0.1425711939        1.4165774495
 H         13.1201121735       -2.0331435010        1.4136474842
