88
 energy: -129.693150494297 gnorm: 0.000040538208 xtb: 6.7.1 (edcfbbe)
C          -10.21922306712598       -0.60836943559940       -0.87645912561116
C           -8.99282829036836       -1.19098665514831       -0.14906037435174
C           -9.36425461340144       -2.51655398757462        0.54218325379890
C           -8.53891886096884       -0.20239904101121        0.90921585355285
C           -9.41340343307445        0.16132659733752        1.92446036208770
C           -9.05231084374874        1.04517696246437        2.92499842508503
C           -7.77665726324527        1.58036261603033        2.92611597250670
C           -6.88722892869948        1.23632227350389        1.92962026530446
C           -7.25589229997731        0.35565157402638        0.90802218364109
N           -6.33982037149633        0.03161566159793       -0.08148812393569
C           -5.05048759923290        0.62866284335320       -0.05274209514312
C           -4.86937799372570        1.92794349009785       -0.51670712261774
C           -3.61414747062038        2.50018963650596       -0.49271705308503
C           -2.51470212860058        1.78633951476934       -0.01321025118754
C           -1.19486534789072        2.42741704668640       -0.01763983596161
C           -0.00077855260190        1.70705557961897       -0.00719399945975
C            1.19386983811562        2.42653414112082       -0.01901232476266
C            2.51341144937050        1.78501951937242       -0.00849716658825
C            3.61501134287396        2.51269292067464        0.44461838562194
C            4.87074968687379        1.94209267411717        0.47806786712813
C            5.05034776058990        0.63015864781099        0.05041861723608
N            6.34043414889383        0.03560135827631        0.08628796041792
C            6.65429646464852       -0.82726973347893        1.12551803628966
C            5.71101169866388       -1.07454955619246        2.12774247108465
C            5.98984967860050       -1.93355220280723        3.17023769591194
C            7.22249231582971       -2.55787391513450        3.23650099921748
C            8.16353447775896       -2.30027534204092        2.25632855574015
C            7.90996236250472       -1.44046699271257        1.19602001867229
C            8.99314919880257       -1.18737256600607        0.16371524796051
C           10.22273401030114       -0.59202861251468        0.87526479732969
C            9.36156728961933       -2.52517582663001       -0.50522611317454
C            8.53488058822604       -0.21785870261560       -0.91019410602761
C            9.40498710285097        0.12669696865083       -1.93588184721484
C            9.03973120418923        0.99185989584614       -2.95109061589928
C            7.76396796557061        1.52673046618806       -2.95688604455914
C            6.87882314107086        1.20137393365392       -1.95037104010259
C            7.25201158617192        0.34054262244284       -0.91359066590683
C            3.96073847810189       -0.09710442440124       -0.41698147880085
C            2.70360195375987        0.47419143963793       -0.44535662420352
N            1.17877752222141        3.76522304918497       -0.02544939976007
C            0.00012387218347        4.35063038300826       -0.04630255118366
N           -1.17896008972799        3.76569905339793       -0.05053781171629
C           -2.70668756734400        0.48886690682893        0.46105854205289
C           -3.96343919049670       -0.08380131500903        0.44247587623458
C           -6.64947612594665       -0.84938600033903       -1.10659514454733
C           -5.70128437274256       -1.11603009436738       -2.09915374807584
C           -5.97629234274574       -1.99260085176996       -3.12795071435650
C           -7.20957967800362       -2.61611795888897       -3.18956107850264
C           -8.15495548169119       -2.34052626005354       -2.21845333520682
C           -7.90537327045136       -1.46267401859412       -1.17211156971493
H           -9.95276458446402        0.33082794726758       -1.35861161208114
H          -10.58110473251831       -1.29373009784589       -1.63784790438855
H          -11.02934480981581       -0.41746420109777       -0.17815561060755
H           -8.49343536273975       -2.92613789000029        1.05158939456881
H           -9.71268983884723       -3.24711951244394       -0.18264902655051
H          -10.15037113594089       -2.36394291600396        1.27644929694729
H          -10.40911051381933       -0.25549993642827        1.94160825733192
H           -9.75885946038854        1.30760017325228        3.69814240662187
H           -7.46946826985791        2.26508472572149        3.70313393817542
H           -5.89135612749355        1.65235579504980        1.94142675048732
H           -5.71766461437374        2.48028452195076       -0.89290627034583
H           -3.45984154073024        3.50637933030859       -0.84970510637964
H           -0.00124319889107        0.63088000605206        0.00880084453910
H            3.46216916342884        3.52907842896345        0.77217918900932
H            5.72080228448667        2.50581944229471        0.83282338029911
H            4.75058579796325       -0.58369742765810        2.08819877040475
H            5.24324414820513       -2.11037093638193        3.93082478136277
H            7.45337252714116       -3.23435624096764        4.04579626514456
H            9.12477206089998       -2.78662812480834        2.32640051884965
H            9.95906949176934        0.35677737001049        1.33982270654049
H           10.58655761726523       -1.26278081861066        1.64864606032747
H           11.03057936421485       -0.41583111317656        0.17047975105285
H            8.48849560927674       -2.94384927505014       -1.00325296036174
H            9.71334540577466       -3.24258973218504        0.23102370042472
H           10.14436129066594       -2.38584578279224       -1.24563943691207
H           10.40057228340176       -0.29054273675785       -1.94950051454474
H            9.74299902385099        1.23979196239342       -3.73197061384940
H            7.45332168970640        2.19673691560684       -3.74526534981372
H            5.88276270051945        1.61674958479212       -1.96631662912901
H            4.10856820408262       -1.11146306229754       -0.75726826993646
H            1.87606767603348       -0.09832067744802       -0.83523497153924
H            0.00051757269167        5.43458005192363       -0.06172403861948
H           -1.88092540484376       -0.07134733176865        0.87199823468622
H           -4.11278256353274       -1.08763888534858        0.81197664312356
H           -4.74018576567766       -0.62621919190743       -2.06314098538262
H           -5.22616293789673       -2.18369281976117       -3.88157708917692
H           -7.43757860965427       -3.30585116350700       -3.98843445158467
H           -9.11639439377321       -2.82703066467082       -2.28457407391600
