88
 energy: -129.624071177154 gnorm: 0.000063656028 xtb: 6.7.1 (edcfbbe)
C           -9.34274643965038        0.89211542132408        2.73064354311271
C           -9.06665097936443        0.48446577700971        1.27004876928301
C          -10.39380534867840        0.33565927875925        0.50067770978506
C           -8.34989543337374       -0.85020317330326        1.26638234463161
C           -8.96483660144713       -1.96307243370045        1.82381347815050
C           -8.35331646828033       -3.20336014521639        1.84877652091436
C           -7.08641613268255       -3.35031382834752        1.30559854614013
C           -6.45077439241424       -2.26401039734710        0.74697416756643
C           -7.06797246268835       -1.00576671933794        0.71754253334658
N           -6.40326616777846        0.06200264574626        0.15039536898765
C           -5.09297793416556       -0.13648956126326       -0.37681404389733
C           -4.91549800173224       -0.53348377872986       -1.70278591998536
C           -3.64968726077840       -0.71036072398217       -2.20446141306901
C           -2.50534979037198       -0.49672316341283       -1.40827424964441
C           -1.20430061121668       -0.68361063030083       -1.99346154596696
C           -0.00018358050114       -0.48133555892605       -1.32384954687314
C            1.20397930215565       -0.67988036201569       -1.99447552594298
C            2.50486983007037       -0.48955450781987       -1.40998392023848
C            3.64916634923361       -0.68931273457963       -2.20980766951042
C            4.91473314259781       -0.51103740853263       -1.70801390436853
C            5.09194394504312       -0.12654261130764       -0.37834644069316
N            6.40234777266948        0.06765490346395        0.15013095316138
C            6.96876556842474        1.32432742642817        0.08742106725441
C            6.25465767618034        2.37265867250550       -0.50932934534005
C            6.78899384051970        3.63962046462192       -0.58368393720857
C            8.05002774513785        3.88748858164560       -0.06406740479359
C            8.75909380033047        2.85531252316248        0.52301244692558
C            8.24727322610301        1.56780170850041        0.61169411993041
C            9.07055236756448        0.47580190921852        1.26351336104710
C           10.39304556992683        0.32342751738621        0.48683810640288
C            9.35617215944807        0.87739450904957        2.72393854499872
C            8.34786738579630       -0.85567665235208        1.25889457490174
C            8.95960616868604       -1.97275906507851        1.81142560463821
C            8.34296008794928       -3.21054507080605        1.83435068055880
C            7.07426284697719       -3.35076660630805        1.29359810734888
C            6.44187008963386       -2.26027050320816        0.73952041184812
C            7.06403655867334       -1.00441203522117        0.71270090750710
C            3.97577923074593        0.07006562553717        0.43293639278274
C            2.70818947917407       -0.10754614915549       -0.07073019325775
N            1.16760862360424       -1.07784427243840       -3.31265871503176
C           -0.00001845802579       -1.25129210460632       -3.87384593881153
N           -1.16769437005103       -1.08238485951228       -3.31139863120025
C           -2.70891177977831       -0.10362531303159       -0.07226409468861
C           -3.97672748817615        0.07278953458318        0.43122522351000
C           -6.96595583384782        1.32022041030395        0.08302720408214
C           -6.25098326573519        2.36310876533552       -0.52222017864745
C           -6.78125114099556        3.63152866246981       -0.60057714714639
C           -8.03911091187223        3.88642628604373       -0.07672044684267
C           -8.74944302386543        2.85946120285539        0.51789530834361
C           -8.24180812300400        1.57056436654533        0.61046271546998
H           -9.87229064644587        1.83942173440774        2.77313878410615
H           -9.94505741664949        0.14100429624993        3.23324561566559
H           -8.40338806449011        0.99805288892759        3.27048046148195
H          -10.19526300502297        0.04610709583208       -0.52976133306632
H          -10.94361031306934        1.27218587751601        0.49457723385619
H          -11.02101992628060       -0.42467440491379        0.95661245202265
H           -9.95004189378360       -1.86600479546051        2.25300805505956
H           -8.86075742801219       -4.04789132792870        2.28969488577359
H           -6.59337062637138       -4.31085541549496        1.31666054500007
H           -5.46439186142377       -2.37726518488993        0.32510845521291
H           -5.78196535331875       -0.69759169180995       -2.32740396432683
H           -3.49945607968195       -1.01514074453291       -3.22880219206848
H           -0.00021516713737       -0.16731179494003       -0.29311267624719
H            3.49911623161600       -0.98567178478502       -3.23664292983429
H            5.78125590225843       -0.66510596432671       -2.33511137378079
H            5.27382503294466        2.17886411219236       -0.91461400115177
H            6.22187694743606        4.43284605521252       -1.04747932127199
H            8.47804395824460        4.87706742764361       -0.11627411040930
H            9.73951313224041        3.06543280399045        0.92166096391177
H           10.18796075855142        0.03790504193787       -0.54344620651171
H           10.94695689647543        1.25754664403550        0.48077968324109
H           11.01909477687187       -0.44116166778614        0.93725531152846
H            8.42010647851169        0.98718648027750        3.26868751469169
H            9.89155028487986        1.82139352179343        2.76675813571131
H            9.95655532555488        0.12131782187201        3.22135284490625
H            9.94646568948888       -1.88121336397732        2.23802314302697
H            8.84798190013938       -4.05850753397853        2.27144465403979
H            6.57732117483419       -4.30931222749762        1.30286179810652
H            5.45425831256433       -2.36832786097507        0.31917490029869
H            4.11678872567747        0.36494150775178        1.46326848504048
H            1.86587292867531        0.05181974823973        0.58435310562046
H            0.00001241988123       -1.56593247508449       -4.91241980983356
H           -1.86658044389687        0.06703621673573        0.57993499075117
H           -4.11785484910907        0.37728981422621        1.45874275181612
H           -5.27268718723431        2.16416080795126       -0.93104107513107
H           -6.21338732102937        4.42041363214167       -1.07081555401277
H           -8.46370482266695        4.87733103138229       -0.13160061244021
H           -9.72747736890177        3.07489524541002        0.91954744017576
