92
 energy: -147.374679311445 gnorm: 0.000021681253 xtb: 6.7.1 (edcfbbe)
C            0.45361294396076        2.97159054988176        1.40522016149061
C            0.40629791866621        2.27882429635237        0.03053720358189
C            0.57541530738523        3.31704366601099       -1.09428361683365
C            1.54487425748029        1.27920594488110       -0.04327724914306
C            2.84776867138470        1.73117769998951        0.09894329968665
C            3.93430513374344        0.86625462927955        0.08534273525472
N            5.23770860194562        1.36829519571684        0.23882477280759
C            5.66422467959136        2.21154661951572        1.24364032625077
C            4.96651234187442        2.70947876100259        2.33587383558544
C            5.64382889416405        3.53205631486609        3.21516925517901
C            6.98745923454543        3.85088902340043        3.02518953974065
C            7.69377909164019        3.33925040371562        1.95480807426084
C            7.03452610366863        2.50961128842179        1.05620362873691
C            7.44587245694526        1.80429441053834       -0.12511787094577
C            8.64894621502385        1.70909382088890       -0.81340898108680
C            8.69923788195921        0.93484173012648       -1.95550378193028
C            7.56559564017346        0.27103395243968       -2.42177109475683
C            6.35780524336416        0.35079545056588       -1.75572137957291
C            6.30564258726364        1.11060655087287       -0.59499907778588
C            3.70953124677393       -0.49638512497349       -0.06825549358252
C            2.42284965538541       -0.96218857771388       -0.22821316244055
C            1.32942012251312       -0.09028534749266       -0.23440830588754
N            0.04611281621012       -0.59454597281335       -0.39576350995249
C           -0.12592864488251       -1.98251582311523       -0.63124777984763
C            0.21963349107056       -2.52242994594990       -1.86867775353317
C            0.05464508504216       -3.87963983529543       -2.10794110759678
C           -0.46059679926879       -4.66512551930153       -1.10339396067391
C           -0.81699971888444       -4.14779051036207        0.14121290485822
C           -0.64266398760065       -2.79088585000817        0.37873760503857
C           -1.34892936705986       -5.14149660974486        1.07501935702617
C           -1.78691795802487       -4.92013115563384        2.37604339488602
C           -2.26386263768708       -5.98812551143511        3.12066104888535
C           -2.31005727759871       -7.26782891566070        2.58837023100466
C           -1.87641149336729       -7.50077753226710        1.28789439625653
C           -1.40577170222793       -6.43479785870758        0.55895176057332
S           -0.78658542527958       -6.42919457833538       -1.12367101530667
O            0.44092958248339       -7.18517009669234       -1.23838537215391
O           -1.82746753747380       -6.75691876308592       -2.07263354528873
C           -1.07157528155253        0.22812838654943       -0.35539071214041
C           -2.34390803063164       -0.31481246390058       -0.56206470588913
C           -3.47354927846264        0.47305371923784       -0.52634402682980
C           -3.35525750696742        1.83508809181430       -0.27863840329920
N           -4.49266324891270        2.65901312084298       -0.22929722445772
C           -4.68035099515211        3.81748397251060       -0.95339473502697
C           -3.85815310550560        4.40863313872469       -1.90309250936036
C           -4.29798414855007        5.57247689830382       -2.50358658141749
C           -5.53006871301271        6.13800920654697       -2.17887064146021
C           -6.36245421838731        5.54279284729053       -1.25182356986507
C           -5.94210450981438        4.37187318814855       -0.63323492251000
C           -6.53720943020626        3.49445463113595        0.33545146260240
C           -7.74197109794223        3.50737153929434        1.02731426857722
C           -8.00162274748097        2.49024574283005        1.92425386462161
C           -7.07300946619467        1.47427168540356        2.14458618754247
C           -5.86827690421418        1.43920995672319        1.46924488839664
C           -5.60912813516377        2.44865314573347        0.55216167980732
C           -2.09121571060422        2.37911310753523       -0.09224800078895
C           -0.94215977987441        1.60464432177731       -0.13732869446514
H            1.39241455241372        3.50158007059887        1.53807133053306
H            0.35759221597965        2.23209387136035        2.19821934676748
H           -0.35540378302185        3.68917489166193        1.50627309678136
H            0.51390835040249        2.82788213550834       -2.06489484248168
H           -0.20072764654024        4.07509696300700       -1.03947365225476
H            1.53831477400188        3.81440008310966       -1.02194317208722
H            3.04125243503798        2.78548257506839        0.21890286477482
H            3.93151951813232        2.45192365623305        2.50158298896899
H            5.12214728568694        3.93484069881394        4.07141088072234
H            7.48151093783340        4.50034176228492        3.73316283345788
H            8.73897553379064        3.57400636641315        1.81731767241204
H            9.52470809555094        2.23339291530229       -0.46036573595662
H            9.62616669878215        0.84543204208593       -2.50323642430447
H            7.63304436660780       -0.31719636533395       -3.32569763063481
H            5.48174612707505       -0.15577556710459       -2.13178323792597
H            4.53776792562095       -1.18796959099555       -0.04921241257423
H            2.26302859789666       -2.02335830901251       -0.33570167618198
H            0.61743238052931       -1.87701407528414       -2.63672098748585
H            0.31548019442547       -4.31710582087964       -3.05858406617855
H           -0.90252866093352       -2.35107865340791        1.32859809106017
H           -1.75746532076298       -3.93105504938913        2.80418925655903
H           -2.60440514792903       -5.82032514456608        4.13114992914509
H           -2.68371556962671       -8.08763186467398        3.18191781096738
H           -1.90277761797510       -8.48630714858139        0.84989277952706
H           -2.45074904800847       -1.36742299376140       -0.77077776074031
H           -4.44454547674533        0.03698712125973       -0.70414552227421
H           -2.91170336536017        3.96655971014601       -2.17503655775692
H           -3.67538527250672        6.05361785408676       -3.24418574840244
H           -5.83786474062674        7.05030316950445       -2.66890926314984
H           -7.32367610163015        5.97348584430658       -1.01286096545706
H           -8.45684010652221        4.30090725206111        0.86657342129461
H           -8.93370508055559        2.48129840188544        2.47044361033755
H           -7.30056726474547        0.69849533862956        2.86143886840788
H           -5.14960605534126        0.65527086203071        1.65447531049467
H           -2.01907981035246        3.43870584377547        0.09617897716935
