92
 energy: -147.294221168312 gnorm: 0.000022598996 xtb: 6.7.1 (edcfbbe)
C            0.31128739197525        2.99404787883605        1.43924247805284
C            0.28904003068614        2.32412222859744        0.05108475895144
C            0.43010549727493        3.39014166484723       -1.05323421912604
C            1.45667971543164        1.36448356303991       -0.03537786195190
C            2.74246387045891        1.84069885953688        0.11823626428854
C            3.85977691774685        1.00396399980708        0.04290550957367
N            5.13644430760067        1.52560320864936        0.19378997568018
C            5.53368865739503        2.43118393265581        1.16495172967276
C            4.81805377531301        2.95598718842877        2.23188159414384
C            5.47395389999269        3.82367713335154        3.08755956343236
C            6.81336144806821        4.15480766463060        2.89894386240393
C            7.54278218408176        3.60487892514958        1.86020652762916
C            6.90487032770471        2.73223224249254        0.99003462480396
C            7.35095865953855        1.96925266565457       -0.14503660666898
C            8.56864868581076        1.86543047321312       -0.80200072841130
C            8.65444122991800        1.04187046199415       -1.91009424374608
C            7.54060516977274        0.34648635918601       -2.37389874808265
C            6.31615466246905        0.43596038910055       -1.73498945714418
C            6.23224066145411        1.23358259445748       -0.60252506716259
C            3.66509105351590       -0.36773122596118       -0.17662302467967
C            2.39640580663612       -0.86364796977562       -0.31355437553413
C            1.27115657161747       -0.01700779317262       -0.26225151346748
N            0.01738965021207       -0.54733348087409       -0.40899214968638
C           -0.11062253380049       -1.95280729150737       -0.63890667839342
C            0.11397541219661       -2.44150090109708       -1.94520098797679
C           -0.01060426696097       -3.80558388337268       -2.17797013606159
C           -0.34153010460496       -4.63812309823553       -1.14222887382268
C           -0.57389858806335       -4.16523446038778        0.18444015482881
C           -0.44721365539161       -2.78215646530052        0.40524176333970
C           -0.90709105790063       -5.18195954499972        1.11904981373891
C           -1.19541682074792       -5.05183843688579        2.49193011062846
C           -1.50142615645742       -6.16366829847093        3.23800922118205
C           -1.53532923766750       -7.44200210614906        2.66632909510570
C           -1.25603209575298       -7.59684304169539        1.31464725678550
C           -0.94987320484274       -6.48734831609664        0.56821983317497
S           -0.56044085677628       -6.39873785328832       -1.16122724167431
O            0.68329869330222       -7.09210202301476       -1.48253064613445
O           -1.68966658329588       -6.79088204052106       -1.99911254042003
C           -1.11352254320638        0.22248850179302       -0.35240025323768
C           -2.37614967768735       -0.37643547577808       -0.53312545452993
C           -3.52767537135658        0.36096824288530       -0.47211087360858
C           -3.46130728207235        1.74410336323735       -0.24654426215811
N           -4.61659566972840        2.50987577760614       -0.18617871620374
C           -4.81896283764493        3.72693466259166       -0.81744215018497
C           -3.99215693876336        4.41991962413400       -1.69041620305511
C           -4.45873622059607        5.61239875476909       -2.21539250745095
C           -5.72206545979140        6.10202369838309       -1.89353731406708
C           -6.56619722643895        5.39664886619040       -1.05483939905096
C           -6.11856397171569        4.19843815229037       -0.51689086597070
C           -6.72447606506418        3.21403016476899        0.33946570367277
C           -7.95931210756154        3.12910826546055        0.96638793736866
C           -8.21958540468485        2.03304730700930        1.76918178490770
C           -7.25924803117824        1.04371590948019        1.96494526907389
C           -6.02130419301478        1.10773189866931        1.34949336578447
C           -5.76757616273297        2.18655602448221        0.51431790488460
C           -2.20782925798825        2.34302321952207       -0.09191473605797
C           -1.03611317181343        1.61590012506853       -0.13356685368649
H            1.22625088139214        3.56206778158512        1.57541582113329
H            0.24986517511186        2.23790999967370        2.21935235949866
H           -0.52816019896889        3.67298806112974        1.55239063565989
H            0.36640020391963        2.92212995835810       -2.03349975293228
H           -0.35652856760551        4.13360723906147       -0.97036941071775
H            1.38583214487513        3.89924337691538       -0.97727359290717
H            2.91083243959458        2.89539039424943        0.26361046960759
H            3.79020468233164        2.68210443613131        2.40960331765349
H            4.93676168078923        4.24760091662178        3.92279864604293
H            7.29085534498410        4.83856577765304        3.58492202759410
H            8.58794537513372        3.84098589462012        1.73093267302434
H            9.42728492318876        2.42097741928025       -0.45700353273286
H            9.59416482036485        0.94357175646952       -2.43300799851505
H            7.63154488433150       -0.27303864278474       -3.25370072028612
H            5.45708020316768       -0.09096911091294       -2.11994315193503
H            4.51102175043930       -1.03632431034773       -0.18973760382435
H            2.24946073523328       -1.92307158524745       -0.44813905614150
H            0.36872638915755       -1.75926180519248       -2.73911461034453
H            0.15103234192905       -4.21686552592041       -3.16369030187371
H           -0.60979382642128       -2.37231455972308        1.39042581020015
H           -1.17507291074775       -4.07613418856388        2.95360399271263
H           -1.72215595419109       -6.05688311744438        4.29067193897447
H           -1.77768610944680       -8.30111225704566        3.27214889256828
H           -1.27535973716659       -8.56979974070162        0.84401259956333
H           -2.42936842335332       -1.43345083328750       -0.73836879680016
H           -4.48207687816791       -0.11140414700092       -0.64196262130145
H           -3.02517454837004        4.03607203501252       -1.97444862020286
H           -3.83197514175264        6.17115724658059       -2.89432741042292
H           -6.05093168148936        7.03827830155220       -2.31939203211521
H           -7.55553109824110        5.76351378665802       -0.82780104699483
H           -8.69659782732763        3.90614095066243        0.83370475179177
H           -9.17611503240700        1.94566307024107        2.26268057414395
H           -7.48225506969509        0.21066586962429        2.61478172850328
H           -5.27931681761629        0.34528226004955        1.52853147731869
H           -2.17550932109538        3.40258268057830        0.10334330577499
