92
 energy: -147.374592619631 gnorm: 0.000045346147 xtb: 6.7.1 (edcfbbe)
C           -0.01329295915941        2.38032455184135        1.49613533578958
C            0.02882351040722        1.80578091577365        0.06779982200391
C            0.06686619248943        2.94852037145192       -0.96387705822592
C            1.28574388426313        0.96840356002202       -0.07913246993357
C            2.52254181572957        1.56787192591782        0.09929126419068
C            3.70976800408506        0.85371261606845       -0.00288250287366
N            4.94052255130881        1.50295441484765        0.19556980072625
C            5.27584236706637        2.27720164334668        1.28635335489981
C            4.54179166344229        2.55588054265732        2.43139594884746
C            5.12500514182528        3.35819295900552        3.39304044757713
C            6.41212616784511        3.86877560906434        3.23192594261227
C            7.15630569753880        3.57621482547304        2.10621720655506
C            6.59170016264118        2.77130721498072        1.12455102128256
C            7.06458027736709        2.26319472662641       -0.13252519047870
C            8.25404710338075        2.40431918868538       -0.83638567514663
C            8.37661313604628        1.78025697718948       -2.06193861488188
C            7.32662308183666        1.03361223105995       -2.59433772311318
C            6.13469985304028        0.87743612684360       -1.91353436492795
C            6.01296038671991        1.48442144699011       -0.67094025450747
C            3.65992139762002       -0.50286233569920       -0.29912122737240
C            2.44028709431579       -1.11365785671947       -0.49478535378776
C            1.24495704381993       -0.39588925698984       -0.38905420332428
N            0.03581619984668       -1.04548698799627       -0.58028238725805
C            0.04157246861192       -2.42091376561174       -0.94260519554158
C            0.15551689045960       -2.77776581885279       -2.28378223564225
C            0.15826548240980       -4.11717548993391       -2.64967828593991
C            0.04850644680759       -5.06628132320144       -1.66069622268758
C           -0.06232668894674       -4.73292049910651       -0.31164948295926
C           -0.06674396969840       -3.39135778127190        0.04926216067987
C           -0.16177646940177       -5.88495940155428        0.58587869518338
C           -0.27629350995741       -5.86124932308644        1.97150699808657
C           -0.35480219524681       -7.05948146384832        2.66480962956746
C           -0.32066118161043       -8.27529993507006        1.99875516067010
C           -0.20717343072617       -8.31134228439015        0.61326328194527
C           -0.12987354721114       -7.11762179478111       -0.06360168957314
S            0.02061379034248       -6.85297187590405       -1.83050086790603
O            1.28111881594966       -7.34868006316357       -2.33640880920321
O           -1.16529934318925       -7.28960429080736       -2.53312763408689
C           -1.17653987118207       -0.38143973156457       -0.47936477464445
C           -2.36871596584979       -1.07969890184131       -0.69445709598113
C           -3.59105399886655       -0.44863195777773       -0.61356487326776
C           -3.64712415828865        0.90357060431420       -0.29911091360966
N           -4.88011730250106        1.57258819992694       -0.21139042817338
C           -5.21091934459807        2.73732834245778       -0.87139645107723
C           -4.46756936138512        3.48037028614890       -1.77851596324111
C           -5.04769961007980        4.61400932736515       -2.31404652105410
C           -6.34041431550249        5.00322727998881       -1.96651185906359
C           -7.09379463731754        4.25553745346950       -1.08335364328316
C           -6.53259426700822        3.11060698347990       -0.53134081527188
C           -7.01456506184874        2.11162392643931        0.38081249284286
C           -8.21379595312818        1.93239343085525        1.05902085430571
C           -8.34444939886539        0.84272922822760        1.89684467214979
C           -7.29402952071449       -0.05674576192311        2.07227558761427
C           -6.09242480476221        0.09895781771085        1.40853722901561
C           -5.96199376330547        1.18084933192087        0.54840937019409
C           -2.46336245248580        1.59557728515145       -0.07603264673456
C           -1.22383157895872        0.98235217605077       -0.16801108851359
H            0.85650522181949        3.00244606211215        1.68726768169452
H           -0.02640489346166        1.57006950660822        2.22296289765185
H           -0.90144727102348        2.98788429962994        1.64402702240675
H            0.08113385784848        2.53969408132056       -1.97276519503072
H           -0.80467046125110        3.58909857934921       -0.86295039766619
H            0.95311016407502        3.56228706431700       -0.83098978596028
H            2.58386382333210        2.62237582426299        0.31806152372989
H            3.55168645086268        2.14958544583605        2.57200638226104
H            4.57333297990092        3.59265829551483        4.29207105646133
H            6.83229211619888        4.49527573337271        4.00539692948805
H            8.15886480207305        3.96039816488998        1.98873212844900
H            9.06319828400713        2.99388107434118       -0.43115184053843
H            9.29451003429704        1.87568470269284       -2.62369245591103
H            7.44745818901063        0.56870864612882       -3.56229154488445
H            5.32196185756027        0.30828951049775       -2.33909984229910
H            4.57135379261221       -1.07695154972373       -0.36562585713583
H            2.41239672832051       -2.16712966813231       -0.72530956994235
H            0.24059429818331       -2.00600291924901       -3.03319236911238
H            0.24259433780444       -4.41676572278412       -3.68228099489742
H           -0.15314918121411       -3.08873960852940        1.08080133796353
H           -0.30336578130906       -4.92420066704707        2.50396103139340
H           -0.44335855361245       -7.04497441809024        3.74055021983058
H           -0.38200199695018       -9.19849853310695        2.55364161058881
H           -0.17853227079431       -9.24374162796827        0.07139918050582
H           -2.33652698687542       -2.12908048864763       -0.94214461745523
H           -4.49950804782419       -0.99889998266596       -0.80492777055264
H           -3.47309459946945        3.17559410634161       -2.06718796470938
H           -4.48879233912236        5.21110538219720       -3.02021159629318
H           -6.75776311199006        5.89848561681436       -2.40417388774599
H           -8.10066559595870        4.55002411042735       -0.82630955391689
H           -9.02406356973357        2.63543370265288        0.93361957475986
H           -9.27000718208098        0.68454694739634        2.43120651238742
H           -7.42246783845580       -0.89241378910823        2.74511165111036
H           -5.27972731054814       -0.59546580656205        1.55938417529768
H           -2.52920591167726        2.64127330464921        0.18039257461107
