92
 energy: -147.294200503336 gnorm: 0.000055332041 xtb: 6.7.1 (edcfbbe)
C            0.41595559935788        2.98020432618296        1.43026487522888
C            0.38246070083052        2.31096517785253        0.04199833637343
C            0.57803547971590        3.37009004950789       -1.06069577912435
C            1.51168043031001        1.30540328116023       -0.03121827405635
C            2.81385104354306        1.73120250625528        0.13202513249294
C            3.89781939405607        0.85082146125560        0.06971189163463
N            5.19302643682732        1.32289905077207        0.22589836704654
C            5.61985981171311        2.21877073348171        1.19347156775399
C            4.91940127811408        2.77786532979606        2.25302406504456
C            5.60379668393795        3.62537368549230        3.10659373485568
C            6.95599152829026        3.90318185569520        2.92332189662088
C            7.66908656694707        3.31872936631531        1.89211788554752
C            7.00261443537182        2.46530294975868        1.02431699657076
C            7.42480735918111        1.67823053095775       -0.10342080143581
C            8.64099939414958        1.52285474703089       -0.75288578296978
C            8.70040001816532        0.68994378365017       -1.85571651218297
C            7.56281945538120        0.03561304430635       -2.32161225123334
C            6.33946687136102        0.17652743472627       -1.68994274036348
C            6.28081900185788        0.98363901236500       -0.56261950205045
C            3.65077333925654       -0.51347955814352       -0.14291640306820
C            2.36463727615227       -0.95964234550339       -0.28828766176591
C            1.27353260321886       -0.06864584168812       -0.25386330892934
N            0.00116547133302       -0.54910872271936       -0.41254114379321
C           -0.18301319234457       -1.94981837590836       -0.63175803691267
C            0.05066327747791       -2.46321065596688       -1.92712015250070
C           -0.13475896424763       -3.82200082213096       -2.14964763468056
C           -0.53243937510625       -4.62599805850984       -1.11485906828776
C           -0.77483231334962       -4.12806239437928        0.20094562304653
C           -0.58521536491972       -2.75073010793239        0.41150150230905
C           -1.18235317086716       -5.11705188498005        1.13584770592645
C           -1.50160567496730       -4.95842793005956        2.49887402802022
C           -1.88100272377420       -6.04629603048955        3.24658935145851
C           -1.96080808190971       -7.32777988235188        2.68645754743053
C           -1.65322622762203       -7.51028957803481        1.34441169717603
C           -1.27413234397838       -6.42468964621382        0.59642530512141
S           -0.83667558437222       -6.37384295285509       -1.12270994323638
O            0.37929944905813       -7.13068807352783       -1.40452252600983
O           -1.96181018324571       -6.71968387042321       -1.98609139710392
C           -1.09826614493959        0.26652735399108       -0.37580702417180
C           -2.38123194491304       -0.28026563485597       -0.57766872987554
C           -3.50270094283006        0.50313324512251       -0.53250779998941
C           -3.38387593829118        1.88196214915923       -0.30255057066810
N           -4.50794282086585        2.69373800591991       -0.25490252182185
C           -4.65193691071967        3.91997668614385       -0.88423716802768
C           -3.78804166908305        4.57868487463232       -1.74782279436105
C           -4.19800609334107        5.79132045227834       -2.27383783368857
C           -5.44200357607637        6.33409262123257       -1.96206954963138
C           -6.32333346352941        5.66385642037682       -1.13288870781122
C           -5.93285212632174        4.44605580824912       -0.59440787751307
C           -6.58857435649534        3.48617552447353        0.25307295623544
C           -7.83162507480216        3.45287665590461        0.86852243424818
C           -8.14683779192497        2.36619364726111        1.66433761779834
C           -7.23257516054839        1.33495568643275        1.86430788064270
C           -5.98715149857355        1.34752416177008        1.26085806183400
C           -5.67856720536518        2.41777807788746        0.43317188721495
C           -2.10952163954046        2.42976564048758       -0.13076759485918
C           -0.96761321525064        1.65601983039032       -0.15758974278399
H            1.35303691985402        3.50782871707720        1.57813630277014
H            0.31157718261073        2.22807202748257        2.20965203933780
H           -0.39448543418941        3.69518986421036        1.53237455897250
H            0.50884050736256        2.90430876121305       -2.04166591229583
H           -0.18059624948138        4.14310235018287       -0.98789003645866
H            1.55134132257877        3.84267738560855       -0.97275830957839
H            3.02219912195808        2.77911763813405        0.27435823002403
H            3.88069355572361        2.54544980174738        2.42666045816222
H            5.07895595541767        4.07537930190950        3.93600605809841
H            7.45576128833019        4.57291970041102        3.60724957980592
H            8.72327391003911        3.51349377267771        1.76717340782886
H            9.51893578065024        2.04632247907960       -0.40632112555613
H            9.63833169722919        0.55198122239320       -2.37284721227489
H            7.63426084497799       -0.59227967083562       -3.19729939038575
H            5.46245443006622       -0.31864626338276       -2.07657711308707
H            4.46978304431325       -1.21495727356790       -0.14453293239542
H            2.17689269080669       -2.01329844174633       -0.41723081262484
H            0.35713638142302       -1.80281595440188       -2.72121913332071
H            0.03128308828132       -4.25164581629386       -3.12677280984212
H           -0.75263193169041       -2.32264253457645        1.38808088003424
H           -1.44686319974920       -3.97989915827265        2.95171164905283
H           -2.12482573541834       -5.91767223051719        4.29169529300742
H           -2.25997743329435       -8.16766563002055        3.29382629038000
H           -1.70648107789338       -8.48595334094402        0.88193073715866
H           -2.47446093090469       -1.33381488526012       -0.78650118670537
H           -4.47268016246964        0.07023860413164       -0.71823828365323
H           -2.83592929468003        4.15403030679359       -2.02395971480917
H           -3.54184294170246        6.32408145828017       -2.94582456319075
H           -5.72626198172084        7.28468946995470       -2.38823050230958
H           -7.29805240679002        6.07237447430955       -0.91404717395518
H           -8.53306545021421        4.26185539829150        0.73242095568843
H           -9.11072239226006        2.31880988708042        2.14892280213860
H           -7.49791131533166        0.50958151796508        2.50796942254383
H           -5.28107651156845        0.55251888191633        1.44338416546372
H           -2.03709646857667        3.48712045694001        0.06562030198426
