77
 energy: -115.724457544914 gnorm: 0.000048511536 xtb: 6.7.1 (edcfbbe)
C           -4.43693277057106        0.87653882751019        1.63090537321109
C           -5.65740965615782        0.25288145936774        0.94433141475486
C           -5.81036378375685       -1.21392163118621        1.36056222164138
C           -6.90297961122527        1.04253962465129        1.28274985029679
C           -7.47775268331953        1.26679506454157        2.51569636330842
C           -8.62693357237107        2.04362339494226        2.58801521919717
C           -9.19282594832015        2.58704142169754        1.44271232693846
C           -8.62472810117625        2.36436015566003        0.19995928706988
C           -7.47665405598524        1.58919842991292        0.12514354903245
C           -6.67527356690309        1.18993533877240       -1.01735601218912
C           -6.85213596432140        1.46458237927822       -2.36496352890521
C           -5.94733373606165        0.93639661803960       -3.26924495448862
C           -4.89298083067022        0.15327757569987       -2.83074452664559
C           -4.69985684870160       -0.12308326224125       -1.47412267879451
C           -3.54126744023643       -0.96476366837509       -1.10309983234197
C           -3.62792832076596       -2.35819016054709       -1.18245911438974
C           -2.51804480530951       -3.12839429803108       -0.87757300254671
C           -1.32244958591635       -2.53298949206234       -0.49886182423312
S            0.00985292345644       -3.62487868821286       -0.16452369676120
C            1.33118860519629       -2.55544444525731        0.27132598909939
C            2.53051971556985       -3.17179591058099        0.60133226883281
C            3.63398099196506       -2.42187476444607        0.97329552607437
C            3.53649862712449       -1.02769187451430        1.01225740591978
C            4.68782936706290       -0.20945446545408        1.45215256335894
C            4.86297380112446       -0.01991659836930        2.82582853232835
C            5.90933107681763        0.73617255259258        3.32668617159028
C            6.82096476661172        1.32717926188527        2.46935631573244
C            6.66039402345943        1.14087377534472        1.10473197149035
C            5.59742172348917        0.37842618865696        0.58850860477626
C            5.66952969256337        0.32885615266311       -0.92539422306806
C            4.44391154673465        0.97294300127478       -1.58271051845229
C            5.85535182480690       -1.10484137570587       -1.43434248036125
C            6.90468867253177        1.15902305786890       -1.19830791740903
C            7.48121646219876        1.48099378825697       -2.40854185540146
C            8.61943659634566        2.27705419740687       -2.41781129969550
C            9.17325625505136        2.74197072541883       -1.23268382408912
C            8.60286900236288        2.42153143715091       -0.01253575156731
C            7.46514945018241        1.62782206377374       -0.00074535718697
C            2.33461048309308       -0.41753882234659        0.69740862535602
C            1.19802900645383       -1.15097070235042        0.30711646226460
C           -0.00413326504737       -0.42205817494608       -0.02265154573307
O           -0.00927466420365        0.85240096563441        0.03184897816381
C           -1.20094920946125       -1.12959589480498       -0.41274938014197
C           -2.34365193754191       -0.37438586294320       -0.73845165541371
C           -5.60149418021348        0.40328831278625       -0.56363325239602
H           -4.30519510599408        1.90770705735890        1.30808529099369
H           -3.53516927365309        0.31983363256907        1.38943955814007
H           -4.57160451196493        0.86698043230930        2.71004548082812
H           -6.67336198596600       -1.65808555656903        0.86830537311600
H           -4.92096026775593       -1.77643493049501        1.08817191053436
H           -5.95032223414999       -1.28311064694343        2.43662059534584
H           -7.04741258103258        0.85146189463370        3.41524151167457
H           -9.08642567112206        2.22808190985223        3.54834821327381
H          -10.08586789765168        3.18979831219695        1.52393602964284
H           -9.06593903071838        2.78676682971949       -0.69047295347757
H           -7.67744592410335        2.07375460933766       -2.70074313889316
H           -6.06119627049670        1.13147156649434       -4.32559436529291
H           -4.19194778799451       -0.25306477734344       -3.54583074872917
H           -4.55286929964169       -2.82716171184810       -1.47825575438183
H           -2.56799997892828       -4.20550326083999       -0.93509622704938
H            2.58899416227940       -4.24942515182621        0.56654002735384
H            4.56165035993100       -2.90735245059318        1.23167659813794
H            4.15520247324133       -0.47435613116410        3.50449997369644
H            6.00995572894391        0.86279780589756        4.39477502969948
H            7.63851760173841        1.91790279093941        2.85373038469085
H            4.29109348637142        1.97926858122947       -1.19700885813766
H            3.55031363867527        0.38670909562044       -1.38447020372443
H            4.58715504741842        1.03341258234579       -2.65906423743043
H            6.01046014518591       -1.10059412667104       -2.51054731794460
H            6.72054168047193       -1.56427874718947       -0.96023482792967
H            4.97352028662896       -1.70004687564910       -1.21153902724438
H            7.06039011110158        1.12674262730535       -3.33821863551043
H            9.07979603109362        2.53867834711371       -3.35964017947974
H           10.05844415552367        3.36073827067797       -1.26486325489394
H            9.03404277507750        2.78403982714875        0.90867698574963
H            2.23124452996361        0.65673233382225        0.74834663645590
H           -2.24731178152892        0.70105716275855       -0.70032513819400
