77
 energy: -115.812089018637 gnorm: 0.000063782742 xtb: 6.7.1 (edcfbbe)
C           -4.56460603418095        0.49101892273210        1.75304967377453
C           -5.75242167315023        0.00995025268551        0.91161243281923
C           -5.89019453028603       -1.51364673704723        1.00727281308945
C           -7.02620358294425        0.68802279343125        1.36802669989838
C           -7.63925008523630        0.63567253933178        2.60216371987788
C           -8.81545314245483        1.34754806709861        2.79732465264714
C           -9.36798375659470        2.10065391809457        1.77230584134980
C           -8.75810098768346        2.15902597431433        0.52955686285296
C           -7.58457715169308        1.44893445966036        0.33305449949108
C           -6.73686480839067        1.31974685514417       -0.84159196737353
C           -6.87490068972227        1.87821719546691       -2.10109383643117
C           -5.91917481123167        1.58892228738804       -3.06074985049069
C           -4.85375277453552        0.75854946669513       -2.76051380304466
C           -4.70390970699270        0.19270985936230       -1.49289456223138
C           -3.53354322228887       -0.68564894523536       -1.26083268503221
C           -3.59763724168839       -2.04822678759955       -1.56904626688270
C           -2.49820303102583       -2.85530962884598       -1.38947334375934
C           -1.30064275697007       -2.32744199407247       -0.90263358392594
S            0.02042313580487       -3.45672112870176       -0.72098148110466
C            1.32356037267673       -2.47133405245562       -0.10100522801964
C            2.52548964204088       -3.13305359688658        0.15866054145926
C            3.61282354541098       -2.44520898074668        0.64539086108529
C            3.53141830015045       -1.06982849994488        0.88448014142947
C            4.68968378801769       -0.33448310437026        1.44354449604532
C            4.82857539972359       -0.28969756680128        2.83206577250680
C            5.88343764226644        0.37495646249150        3.43235691432013
C            6.83838618324585        1.01630429805705        2.66113270243492
C            6.71062338064069        0.97618471522547        1.28291632828303
C            5.64116156901541        0.30578099832784        0.66594452201395
C            5.74660424861262        0.41937729847941       -0.84300500135365
C            4.55530140032911        1.17385728431843       -1.44500525909302
C            5.90002451470184       -0.95140823415815       -1.51148345997688
C            7.01262228223155        1.23399274183274       -0.99915509912225
C            7.62635925799801        1.66461828332402       -2.15654111429948
C            8.78924185083762        2.41716661970090       -2.05854629105982
C            9.32817714909606        2.73352480774418       -0.82059822264978
C            8.71818564044612        2.30419185754247        0.34706430977431
C            7.55796667040383        1.55277234006206        0.25102598827083
C            2.33565330532841       -0.42573669783644        0.64206656884969
C            1.21313973078833       -1.09987938480866        0.14148628385693
C            0.00055771934204       -0.30054032704042       -0.08992436568441
O           -0.00364339714546        0.90796462013967        0.14079774397252
C           -1.20716561239946       -0.96675043831579       -0.60016967420375
C           -2.34230520006550       -0.16773353316187       -0.79584557006417
C           -5.65582286924687        0.47909012873604       -0.52763127198822
H           -4.44469374458445        1.56860600777147        1.65725910544754
H           -3.64543421926493        0.00843956043805        1.43110428124318
H           -4.73175236643785        0.25444428047437        2.80138754817083
H           -4.97526303364748       -1.99879847111713        0.67763678590864
H           -6.08651342939520       -1.80476585113962        2.03647253057377
H           -6.71592824111088       -1.85657792152935        0.38690861991643
H           -7.21894773637583        0.05327391182316        3.40948386168414
H           -9.30628874170813        1.31464475787070        3.75951933928533
H          -10.28374195432132        2.64766473442205        1.94585052160810
H           -9.19021281475212        2.74693523608854       -0.26684068346896
H           -7.70838410345233        2.52500999055425       -2.33032050572841
H           -6.00304261994156        2.01167234616013       -4.05149138425265
H           -4.11348779222594        0.53993633295166       -3.51731196549624
H           -4.51767434517994       -2.46463122698376       -1.95104249686223
H           -2.54400631481454       -3.90829896985327       -1.62364985454952
H            2.58509649192114       -4.19460452734042       -0.02877973065920
H            4.53653222177067       -2.96651384993180        0.84731152830118
H            4.08864356592334       -0.78634453133078        3.44393333055319
H            5.95896265341910        0.39125700004666        4.51000872371739
H            7.66349988173772        1.53594023876445        3.12463618369562
H            4.42350547466481        2.13270009386469       -0.94699150639841
H            3.64076891145123        0.59661591513955       -1.33648498170764
H            4.72700117575825        1.35571692199050       -2.50345295291063
H            6.10895933434660       -0.82594727592750       -2.57129494773789
H            6.72304136136249       -1.50147922315322       -1.05943416763672
H            4.98651125946687       -1.53034675576994       -1.40369189097432
H            7.21579244306640        1.42704911100874       -3.12743510240769
H            9.27962707872537        2.76162490631868       -2.95782023647727
H           10.23336775949133        3.32155989997073       -0.76731269342617
H            9.13959362392105        2.55243611937629        1.31006664684229
H            2.23036608459146        0.63253413079085        0.83519091280765
H           -2.24970556138067        0.88486612910393       -0.56828177048002
