  77
       -115.67691544
 C         -4.2727528529        0.9596201665        1.5220173186
 C         -5.5119039384        0.3180252326        0.8899151724
 C         -5.6483673457       -1.1356073611        1.3522695523
 C         -6.7447828868        1.1192631637        1.2425532987
 C         -7.2795001322        1.3801410755        2.4857893709
 C         -8.4241122759        2.1615439810        2.5716605897
 C         -9.0229561860        2.6739564870        1.4298378209
 C         -8.4940949569        2.4149116440        0.1767701847
 C         -7.3516053088        1.6347757108        0.0885840464
 C         -6.5899825042        1.1931924585       -1.0662179470
 C         -6.8152985748        1.4125775183       -2.4160941319
 C         -5.9539394199        0.8323431527       -3.3312616685
 C         -4.8952116643        0.0514862637       -2.9010970452
 C         -4.6496114600       -0.1628876663       -1.5425205466
 C         -3.4967686658       -1.0068978612       -1.1678233197
 C         -3.5839516036       -2.3985697033       -1.2764384687
 C         -2.4892674645       -3.1774639535       -0.9410289404
 C         -1.3078323511       -2.5925886123       -0.5073000692
 S          0.0004829975       -3.6982973705       -0.1197505252
 C          1.3189442236       -2.6316658973        0.3369956657
 C          2.5116061798       -3.2523628756        0.6806131379
 C          3.6138213054       -2.5067334530        1.0642367075
 C          3.5209446846       -1.1118925718        1.1000481772
 C          4.6802861239       -0.3014368365        1.5260787627
 C          4.9499455541       -0.2019828910        2.8931456066
 C          6.0144398402        0.5440618042        3.3688000267
 C          6.8563571558        1.2048174920        2.4909670886
 C          6.6064115431        1.1005770544        1.1316634178
 C          5.5178030901        0.3593465205        0.6428607022
 C          5.4932791568        0.3917387249       -0.8717513337
 C          4.2350843382        1.0713562336       -1.4206482493
 C          5.6344197825       -1.0147148974       -1.4615889049
 C          6.7123217571        1.2324961003       -1.1773941842
 C          7.2183027533        1.6074611401       -2.4033391990
 C          8.3564187552        2.4019799889       -2.4432276530
 C          8.9772626689        2.8147202794       -1.2731260813
 C          8.4772690030        2.4408495165       -0.0373045725
 C          7.3412360726        1.6475799910        0.0049524969
 C          2.3251280971       -0.4968581985        0.7783725804
 C          1.1912613804       -1.2276656812        0.3763324512
 C         -0.0009575642       -0.4877404503        0.0329252359
 O         -0.0062918350        0.7781311187        0.1073914104
 C         -1.1847273155       -1.1915147504       -0.4033034137
 C         -2.3120534037       -0.4255418928       -0.7554769681
 C         -5.5061167768        0.4177639998       -0.6219318847
 H         -4.1314478339        1.9668193161        1.1366822269
 H         -3.3869383039        0.3722437127        1.3034460952
 H         -4.3964019314        1.0172151367        2.6008901307
 H         -6.5273158553       -1.5939085226        0.9034123984
 H         -4.7689291970       -1.7040764288        1.0621682574
 H         -5.7501767514       -1.1761233476        2.4340538315
 H         -6.8220888999        0.9877141349        3.3825125459
 H         -8.8532015245        2.3738339257        3.5398046239
 H         -9.9116810232        3.2808079116        1.5213228597
 H         -8.9615850468        2.8135812992       -0.7111270332
 H         -7.6475103548        2.0155427194       -2.7459587246
 H         -6.1081079455        0.9829554701       -4.3894332290
 H         -4.2308781964       -0.3995257039       -3.6242369283
 H         -4.5002154232       -2.8594585932       -1.6099228127
 H         -2.5416396974       -4.2536732324       -1.0130842815
 H          2.5670978703       -4.3302084139        0.6436502627
 H          4.5389166903       -2.9953602112        1.3261960580
 H          4.3002073973       -0.7154831022        3.5872595380
 H          6.1884070169        0.6037289912        4.4329177749
 H          7.6923569408        1.7818623248        2.8557286825
 H          4.0923359559        2.0398255074       -0.9467635626
 H          3.3597645623        0.4572992746       -1.2350815733
 H          4.3347986896        1.2231209061       -2.4928520969
 H          5.7104239108       -0.9599729973       -2.5448788473
 H          6.5291364571       -1.4984606807       -1.0748937872
 H          4.7686383412       -1.6177764538       -1.2017460078
 H          6.7435455455        1.2935927684       -3.3217414575
 H          8.7631364368        2.7031606283       -3.3973848370
 H          9.8609072140        3.4331158099       -1.3287964955
 H          8.9620168844        2.7617085879        0.8725500272
 H          2.2225654673        0.5750994051        0.8365662837
 H         -2.2112108011        0.6469419570       -0.7044394043
