  112
       -179.38421219
 C          6.5726419970        3.7519599357       -2.3868723364
 C          5.4934752531        4.0065372942       -3.2166625624
 C          4.3464613785        3.2399528553       -3.1223787484
 C          4.2619618534        2.2007370860       -2.1990772549
 C          3.0379343167        1.4001474337       -2.0517919581
 C          1.7889178544        2.0323571807       -2.0756890194
 C          0.6220584079        1.3454808120       -1.8104082078
 C          0.7207092187       -0.0034658261       -1.5101307441
 C          1.9526445489       -0.6833174982       -1.6001022774
 C          3.1148806559        0.0265710745       -1.8514120620
 C          1.6689192653       -2.0663349063       -1.3266597007
 C          2.4666392924       -3.1930048587       -1.2285633370
 C          1.8893245601       -4.4023606409       -0.8593055178
 C          2.7342989761       -5.5929081174       -0.6767352657
 C          3.7645349636       -5.8805435607       -1.5688901030
 C          4.5785505369       -6.9804293080       -1.3734307410
 C          4.3823588274       -7.8075300838       -0.2800314379
 C          3.3625130900       -7.5303121378        0.6147847966
 C          2.5435298772       -6.4345027096        0.4173344646
 C          0.5113873969       -4.4694798802       -0.6189775430
 C         -0.3041562462       -3.3600517460       -0.7214839544
 C          0.2833538314       -2.1533781940       -1.0648906551
 N         -0.2823807983       -0.8921676434       -1.1602809618
 C         -1.4971977084       -0.4947235688       -0.5868981370
 C         -2.6881436772       -0.9804719952       -1.0566220094
 C         -3.9083411551       -0.5209415031       -0.5214196690
 N         -5.0656313288       -0.9999938839       -0.9949309568
 C         -6.1864657260       -0.5170904340       -0.4904160474
 C         -7.4500848714       -1.0139406419       -0.9844954606
 C         -7.5095036311       -1.9933095312       -1.9815363864
 C         -8.7412340165       -2.4300156245       -2.4159228179
 C         -9.8810869217       -1.8705383680       -1.8358907398
 N         -9.8460253652       -0.9509517602       -0.9009587526
 C         -8.6633771321       -0.5167524682       -0.4681336824
 C         -8.6468277465        0.5015044947        0.5704838582
 N         -9.8149457723        0.9435281041        1.0339549258
 C         -9.8193177361        1.8620294546        1.9705885410
 C         -8.6610633518        2.4143795002        2.5202831173
 C         -7.4440776359        1.9696392968        2.0538657259
 C         -7.4174680899        0.9899749082        1.0556833206
 C         -6.1704865542        0.4848119717        0.5290740277
 N         -5.0345225681        0.9618739121        1.0039854565
 C         -3.8925890642        0.4776751456        0.4996609485
 C         -2.6573613439        0.9338234922        1.0014756598
 C         -1.4806259135        0.4457004178        0.4993813308
 N         -0.2516879537        0.8464089487        1.0383770042
 C          0.7587808386       -0.0304668592        1.3938832780
 C          0.6741489846       -1.3778351499        1.7059807684
 C          1.8421510179       -2.0406932514        2.0208467819
 C          3.0818737532       -1.3884708793        2.0470144603
 C          4.3044519057       -2.1561913038        2.3272204166
 C          5.3263330700       -1.6266657991        3.1124866129
 C          6.4749870746       -2.3557265663        3.3587760138
 C          6.6264444032       -3.6238390476        2.8224983197
 C          5.6175927796       -4.1609497594        2.0402315094
 C          4.4669745029       -3.4350303678        1.7976522142
 C          3.1434191175       -0.0202804454        1.8079648860
 C          1.9816233692        0.6649691705        1.4926656705
 C          1.6887351384        2.0404567875        1.1917205805
 C          2.4775402900        3.1712805165        1.0666684309
 C          1.8842868452        4.3750244447        0.7071759067
 C          2.7079311820        5.5794101684        0.5234285839
 C          2.2823232779        6.8207816900        0.9899350197
 C          3.0618299159        7.9471526421        0.8029541037
 C          4.2747527551        7.8534331928        0.1408954689
 C          4.7060027092        6.6240409379       -0.3287778633
 C          3.9320054019        5.4953193403       -0.1363214922
 C          0.5017423042        4.4309590186        0.4914857368
 C         -0.3014218933        3.3129006090        0.5966427116
 C          0.3008817568        2.1131694123        0.9382658465
 C          5.3563592261        1.9500759938       -1.3730288622
 C          6.5003269812        2.7207667735       -1.4648390058
 H          7.4665716916        4.3541118111       -2.4576741036
 H          5.5451534600        4.8076583700       -3.9396513433
 H          3.5131353852        3.4369593308       -3.7808513123
 H          1.7415238041        3.0947909543       -2.2611155052
 H         -0.3335406368        1.8486279138       -1.8194004507
 H          4.0662790797       -0.4816266904       -1.8935205346
 H          3.5305452231       -3.1207426052       -1.3966624308
 H          3.9146234250       -5.2451997721       -2.4297073175
 H          5.3698947171       -7.1944130477       -2.0772696907
 H          5.0210218526       -8.6648732433       -0.1261998880
 H          3.2068104325       -8.1692064461        1.4721166385
 H          1.7612651431       -6.2141360349        1.1297390418
 H          0.0738580817       -5.4213307680       -0.3561030111
 H         -1.3629978172       -3.4312637581       -0.5210233298
 H         -2.7143993725       -1.6920250450       -1.8672829619
 H         -6.5859688299       -2.3806254596       -2.3842463879
 H         -8.8294700648       -3.1818998764       -3.1847477364
 H        -10.8708139865       -2.1760343660       -2.1505519150
 H        -10.7983684024        2.1795423383        2.3058156753
 H         -8.7242639762        3.1679886622        3.2899095879
 H         -6.5076215443        2.3497059698        2.4329227125
 H         -2.6597810972        1.6461870804        1.8118031785
 H         -0.2747961118       -1.8937548424        1.7058462872
 H          1.7985836589       -3.0905740689        2.2675914948
 H          5.2097666530       -0.6457642241        3.5504099891
 H          7.2562239467       -1.9335112348        3.9746002371
 H          7.5261916547       -4.1898855939        3.0139666722
 H          5.7241665071       -5.1480956869        1.6131532589
 H          3.6928878153       -3.8562995441        1.1754088022
 H          4.0870490806        0.5024961120        1.8451122298
 H          3.5401498809        3.1182191880        1.2477780523
 H          1.3435892261        6.8979107706        1.5196285411
 H          2.7225892749        8.9028963418        1.1760491125
 H          4.8807989858        8.7352330954       -0.0070826098
 H          5.6489375844        6.5409751652       -0.8495320249
 H          4.2675653310        4.5426530083       -0.5176836063
 H          0.0572750926        5.3717274819        0.2016998643
 H         -1.3611683637        3.3713201660        0.3961952482
 H          5.2949602634        1.1584483689       -0.6398996054
 H          7.3368957594        2.5209348973       -0.8106780884
