  74
       -115.18486658
 N         10.4839935426       -1.1504388080       -0.6558959478
 C          9.3703788650       -0.9161887676       -0.5150746654
 C          7.9980101645       -0.6277750570       -0.3417411610
 C          7.1567794011       -0.5422944016       -1.4521696157
 C          5.8180335406       -0.2583489724       -1.2766363544
 C          5.2949025901       -0.0600908189       -0.0000902346
 C          3.8602673261        0.2398610960        0.1836645163
 C          3.0230717979       -0.7109732740        0.7849829039
 C          3.5069587485       -1.9831774266        1.1896007837
 C          2.6910085264       -2.8902976459        1.7919507871
 C          1.3388639396       -2.5778649802        2.0339381524
 C          0.8309087153       -1.3774539992        1.6434462360
 C          1.6395060504       -0.4123684177        0.9865014563
 C          1.1224447922        0.8189652812        0.5542771589
 C         -0.3058654400        1.1214203096        0.7717374369
 C         -0.6824972883        2.1393284955        1.6468261045
 C         -2.0149513250        2.4080672713        1.9084837439
 C         -2.9849248459        1.6401371362        1.2848486071
 C         -2.6075012659        0.6243535335        0.3944771340
 C         -1.2843090448        0.3607385279        0.1299155326
 C         -3.8209303204       -0.1027262534       -0.1298233503
 C         -3.7736518343       -1.5797178169        0.1814100060
 C         -3.6545499971       -2.1890466992        1.4109397954
 C         -3.6102812868       -3.5759137970        1.4588107895
 C         -3.6839663026       -4.3288608652        0.2966560953
 C         -3.8023758009       -3.7182622899       -0.9416888346
 C         -3.8452985097       -2.3350218887       -0.9975962093
 C         -3.9522282760       -1.4210088978       -2.1241504762
 C         -4.0582532626       -1.6559678209       -3.4849588692
 C         -4.1473990405       -0.5696420893       -4.3407322427
 C         -4.1306089261        0.7272698303       -3.8501902370
 C         -4.0245038225        0.9707408704       -2.4872815035
 C         -3.9362382297       -0.1069798308       -1.6341005585
 C         -4.9429791525        0.6319950241        0.5619800881
 C         -6.2983346169        0.4067352255        0.4662068079
 C         -7.1556168277        1.2132810790        1.2028316697
 C         -6.6595824341        2.2215585938        2.0155729529
 C         -5.2966519497        2.4510238863        2.1142323373
 C         -4.4352456458        1.6506608447        1.3821350179
 C          1.9561558289        1.7582969006       -0.0695680101
 C          1.4545366838        2.9928474750       -0.5594988358
 C          2.2768773995        3.9097896494       -1.1377943824
 C          3.6564928553        3.6503150970       -1.2591479227
 C          4.1729785404        2.4676498886       -0.8278788417
 C          3.3462666864        1.4727797375       -0.2421497131
 C          6.1419584052       -0.1495788854        1.1031827644
 C          7.4832426427       -0.4284036042        0.9401923949
 H          7.5609378051       -0.6999287888       -2.4414034916
 H          5.1614165457       -0.1951323663       -2.1321982364
 H          4.5433374690       -2.2253486856        1.0057660658
 H          3.0747857976       -3.8541077170        2.0924419266
 H          0.7076329178       -3.3009603133        2.5289094510
 H         -0.2060807472       -1.1437920002        1.8315997568
 H          0.0887489519        2.7138126959        2.1400155146
 H         -2.2891201845        3.1943592339        2.5959574489
 H         -0.9996051648       -0.4229413530       -0.5577798633
 H         -3.5975498300       -1.6010247469        2.3158591045
 H         -3.5174661009       -4.0740994906        2.4127033715
 H         -3.6477454080       -5.4067819898        0.3586189788
 H         -3.8575493782       -4.3096176626       -1.8435996603
 H         -4.0730618175       -2.6640822071       -3.8720266311
 H         -4.2323746166       -0.7344451059       -5.4050624255
 H         -4.2018265899        1.5582281078       -4.5365200770
 H         -4.0127976270        1.9810257496       -2.1043363437
 H         -6.6839007127       -0.3787402824       -0.1675090947
 H         -8.2220225176        1.0534318996        1.1417847946
 H         -7.3463014949        2.8358029803        2.5796517377
 H         -4.9151787861        3.2367715201        2.7494188701
 H          0.3971547808        3.1911993009       -0.4678267260
 H          1.8800258782        4.8446982191       -1.5050905252
 H          4.2991527961        4.3969417902       -1.7019928129
 H          5.2305795977        2.2711109232       -0.9249632400
 H          5.7383307765        0.0083107874        2.0927419406
 H          8.1402325651       -0.4919248185        1.7953543380
