50
 energy: -80.894748480232 gnorm: 0.000041945206 xtb: 6.7.1 (edcfbbe)
C            5.95905298587129        2.64197747971421       -1.10701618606258
C            6.19819276969582        1.83506968702011       -0.00279590993739
C            5.24269472112223        0.91419565877743        0.38070980050033
C            4.07073603914203        0.82342551531605       -0.37672680817954
N            3.07586796688402       -0.09240055346224       -0.05209101351419
C            1.70864439648714        0.13545633075468       -0.15563212422249
C            1.03006353369766        1.25148718138209       -0.62116794717430
C           -0.34925456740036        1.23123441527910       -0.58660679564769
C           -1.05722874186036        0.13265056317575       -0.08055799893264
N           -2.45946532324325        0.16667640689250       -0.06216749981713
C           -3.29707684976683       -0.81550213573047       -0.55207143402268
C           -2.98417766310436       -2.00637906570676       -1.19191707707728
C           -4.02936670825310       -2.80735781982993       -1.60974139596035
C           -5.35726837218627       -2.43715051849601       -1.40686094789172
C           -5.67482063569907       -1.24371886584830       -0.79046099662349
C           -4.64141817428140       -0.42089589592171       -0.36170712765228
C           -4.60288788146094        0.86186676227557        0.28212783462601
C           -5.58447396636509        1.73505039256537        0.73197732007629
C           -5.19549200628848        2.90938924396451        1.34442390591144
C           -3.84711623113590        3.21030609400484        1.52446307585741
C           -2.85236791868663        2.35790313522090        1.08556049537220
C           -3.23650818720972        1.18722201761647        0.44684739347801
C           -0.38229814201640       -0.98208261880108        0.39440061478328
C            1.00361890712426       -0.97952009230199        0.34577259384950
C            1.99223362422501       -1.94501217413237        0.73611494422921
N            1.82933707758173       -3.16324768873582        1.22640573528525
C            2.92678273728530       -3.86052946128555        1.44973581274847
C            4.21234294039520       -3.40146522920656        1.16931658701056
C            4.39871686849849       -2.12731204910623        0.65723594341104
C            3.25901191684847       -1.36126700761521        0.46395555226801
N            3.83132075714333        1.61513450567513       -1.41524239440451
C            4.74871940877057        2.49793738725544       -1.76399766783374
H            6.68367400455038        3.36947911838723       -1.43517254406797
H            7.11433654896872        1.93284326749496        0.56138836092194
H            5.37722500885573        0.30663997779666        1.26090228004342
H            1.56642754840157        2.09727411257549       -1.01826208244154
H           -0.90515084786144        2.07326898126327       -0.97048606936685
H           -1.95897980894909       -2.29563435486517       -1.36647024506406
H           -3.81197262599299       -3.74112869641374       -2.10716618951174
H           -6.14562671448120       -3.09313345180430       -1.74530044565289
H           -6.70352548497905       -0.94970522534783       -0.64525352723310
H           -6.62937048212355        1.49377238436735        0.60683913427876
H           -5.94292023976030        3.60351514379216        1.69921446723142
H           -3.57321431623272        4.12933589034542        2.02177102939657
H           -1.81060144542695        2.59170242820779        1.24627897211575
H           -0.91054829608705       -1.82788974444570        0.80389224826346
H            2.77349139504685       -4.85021415449370        1.85790573071273
H            5.06143632703995       -4.04438373998029        1.34175066043604
H            5.38644151407415       -1.77286650376725        0.40186443554234
H            4.49276363316250        3.11398496617453       -2.61598050006072
