50
 energy: -80.800341878210 gnorm: 0.000112260105 xtb: 6.7.1 (edcfbbe)
C            6.07989551258490        2.70600813927764       -0.82261322042813
C            4.87451274302469        3.21099027603059       -0.33462732650413
C            3.83500419551497        2.34372931102541       -0.07731000913785
C            4.02538423131306        0.97737997287816       -0.32771894163118
N            3.01784036059184        0.05324020338788       -0.11781157246905
C            1.65314884324678        0.28169866198293       -0.17938577273296
C            0.94497227231064        1.33992093060372       -0.70856130610299
C           -0.44599865018661        1.30483468953536       -0.66688896863540
C           -1.11878594720838        0.19311112455018       -0.12170727880060
N           -2.51593234037722        0.19472579339997       -0.09485484249524
C           -3.33122095946638       -0.83132025402401       -0.52722842426269
C           -2.99068540635286       -2.03827749500384       -1.12314805833361
C           -4.01812473045663       -2.88392397117713       -1.49864220216787
C           -5.35257069802932       -2.53952781822150       -1.30032864721463
C           -5.69869917640930       -1.32604261766798       -0.73324970581047
C           -4.68541381356968       -0.46234152924977       -0.34722651222381
C           -4.67450739647469        0.85434055749836        0.23313460423507
C           -5.67187617581429        1.72092444636888        0.65220689790279
C           -5.30420268777658        2.93451829709235        1.20546965895919
C           -3.96315474374445        3.27694953417824        1.35674435096884
C           -2.95129675283227        2.42821503584753        0.94751970053436
C           -3.31404681087107        1.22062410613056        0.36632964196718
C           -0.42771599706166       -0.90311075615140        0.36825389602445
C            0.97389426745992       -0.87703255930243        0.33811177815280
C            1.95785873869950       -1.81619304904592        0.67339347510941
N            1.88423367420450       -3.05528510660981        1.18616379344747
C            2.99412945594018       -3.74681947757331        1.37911906927038
C            4.24934711836102       -3.24900581582754        1.11050307983498
C            4.38130085800947       -1.95509877663672        0.54478187362309
C            3.23251485623355       -1.24254075220624        0.34314075644618
N            5.19923179350803        0.49349086027193       -0.74786343388135
C            6.18438239494287        1.33566875381281       -0.98755233137469
H            6.91150554325324        3.35598761720525       -1.04037674471365
H            4.76101668524144        4.26811521655725       -0.14387315564333
H            2.91017894232155        2.69485379723563        0.35027131130890
H            1.43852043450903        2.17010471988617       -1.18936390145726
H           -1.01936316766349        2.10291969135694       -1.10946886362584
H           -1.95978432952503       -2.30375431848124       -1.29813273394933
H           -3.77962939310522       -3.83032972018590       -1.96025461273332
H           -6.12672253562409       -3.22763011532037       -1.60524451911955
H           -6.73400940129350       -1.05204877675060       -0.59825263267539
H           -6.71181946889805        1.44933924699788        0.55285334131253
H           -6.06603430068250        3.62447894111435        1.53614514859040
H           -3.70762055208095        4.22381236303911        1.80854725013502
H           -1.91390692227611        2.69033715491383        1.08617716912394
H           -0.94551905885997       -1.74238320435171        0.80306777888268
H            2.86022953328322       -4.74491597818598        1.77303985481542
H            5.12173932325672       -3.85074653512109        1.30220025730925
H            5.34343022697082       -1.56613590490910        0.25582833575874
H            7.10467862586662        0.88008622585925       -1.33017508418440
