50
 energy: -80.800356969018 gnorm: 0.000070366305 xtb: 6.7.1 (edcfbbe)
C            6.07508243231563       -2.71999292321206        0.76993943191718
C            4.85925171043660       -3.21497282542731        0.29777090042689
C            3.82040177165628       -2.34021333474191        0.06453523358055
C            4.02254182328252       -0.97678907866981        0.32173337715076
N            3.01718234140542       -0.04604238583224        0.13137447790513
C            1.65246878898358       -0.27303433401642        0.19687891113046
C            0.94516246206348       -1.32702582966525        0.73550481843272
C           -0.44574211132805       -1.29226959279312        0.69529236532214
C           -1.11949973167344       -0.18727645800212        0.13710258325384
N           -2.51608293085612       -0.19460687787488        0.10161102370058
C           -3.33930855802687        0.83803269558913        0.50299049671679
C           -3.00977319427045        2.05966970782485        1.07479824104795
C           -4.04412462559875        2.91054971763458        1.41825274884710
C           -5.37514305799593        2.55725442483497        1.21294315832358
C           -5.71080692603185        1.32906717494507        0.67193498236803
C           -4.69035082568635        0.46009815433142        0.31799308961258
C           -4.66940927269788       -0.86974372218617       -0.23107114056958
C           -5.66033469411439       -1.74964649833296       -0.63753098646176
C           -5.28402774945347       -2.97460991474443       -1.15889842217563
C           -3.94055845190681       -3.31477788995653       -1.29229863927388
C           -2.93512453451788       -2.45262561309997       -0.89543239139397
C           -3.30656441686211       -1.23368644722902       -0.34408841938496
C           -0.42876644257530        0.90611500884018       -0.36025874343112
C            0.97272768964159        0.88306599944922       -0.32561501085311
C            1.95660176846822        1.82220354902987       -0.66197822565867
N            1.88254780941082        3.06065903640176       -1.17571970784140
C            2.99198064635976        3.75420923788968       -1.36467781596367
C            4.24731652477810        3.25770593643917       -1.09429543625569
C            4.37977644189060        1.96392639769618       -0.52822015768969
C            3.23150756877172        1.24988591487749       -0.32931676171008
N            5.20511861988258       -0.50211230387650        0.72760660371635
C            6.18924113458249       -1.35171519775133        0.94504894857053
H            6.90693768432659       -3.37594607444624        0.96798213699737
H            4.73710309901131       -4.26987295753898        0.10018644623882
H            2.88654654779176       -2.68306061230355       -0.34999397723867
H            1.44001245318334       -2.15312917081333        1.22213245039448
H           -1.01834914854462       -2.08537332639702        1.14760463254182
H           -1.98207635828028        2.33305450204483        1.25610547208237
H           -3.81376646004011        3.86853772490137        1.85966118234116
H           -6.15486001553948        3.25005668146979        1.49191824790609
H           -6.74357744204847        1.04801070100195        0.53211197138342
H           -6.70196461016863       -1.47959965227163       -0.55281665995948
H           -6.04064820688662       -3.67535402374700       -1.47866160396874
H           -3.67776280662035       -4.27081285792790       -1.71998246640615
H           -1.89594805293090       -2.71390706651259       -1.02140914237053
H           -0.94637942492047        1.73977902427466       -0.80585790184566
H            2.85743140034220        4.75283467655191       -1.75703048122971
H            5.11934412951247        3.86082163420010       -1.28328520064893
H            5.34147353622572        1.57665893054988       -0.23571599967861
H            7.11728151751698       -0.90395828543951        1.27691691801149
