50
 energy: -80.894930608525 gnorm: 0.000187983547 xtb: 6.7.1 (edcfbbe)
C            6.08294433814684        2.64936643874342       -0.98618178601280
C            4.93513881310870        3.18090978020528       -0.41364506920927
C            3.89283483765648        2.33775762332833       -0.08095632700726
C            4.03475370782955        0.97362583589675       -0.35295440516676
N            3.02428454709701        0.06735168899484       -0.05048202042224
C            1.65514354916767        0.28214008037947       -0.12314212697915
C            0.94236079717868        1.35242735967021       -0.64702206417958
C           -0.43658290821809        1.29198795093851       -0.62791663455970
C           -1.11766466647131        0.18986893397430       -0.09614248678518
N           -2.52006728780361        0.18782573842548       -0.08840938749766
C           -3.33048893313220       -0.81725803819005       -0.57791765330503
C           -2.98441628064167       -2.00464407282699       -1.20684700327655
C           -4.00729468385477       -2.83160847382571       -1.62932241134118
C           -5.34500977296966       -2.49011305294595       -1.44132185113667
C           -5.69539469393594       -1.30071867827567       -0.83493589891780
C           -4.68499863471723       -0.45198562440657       -0.40185347987445
C           -4.68154662696560        0.83597249679770        0.23296043769313
C           -5.68596798808857        1.68963544880661        0.66959099289028
C           -5.32834275824726        2.87704422294376        1.27608871284651
C           -3.98867052763952        3.21136409899283        1.46186639170527
C           -2.97165267544033        2.37895432087656        1.03586266324464
C           -3.32454118932271        1.19421175653739        0.40547220050056
C           -0.41342069087345       -0.89954211788742        0.39497597499797
C            0.97164290695841       -0.85578587995570        0.36334793623280
C            1.98032764260553       -1.81062793439080        0.72937298444874
N            1.84617235073149       -3.02657610426549        1.23719073585183
C            2.96254332505760       -3.68873659513941        1.47298241434956
C            4.23960730660896       -3.18491577900211        1.22701920851777
C            4.39552998776742       -1.91490401294641        0.69671506017400
C            3.23076853528109       -1.21127580114207        0.43683516431709
N            5.14493085965867        0.46237195263486       -0.87198936123316
C            6.13706934529095        1.27883670958496       -1.17528079864608
H            6.91387221527367        3.27880990655592       -1.26061364788254
H            4.85960819985115        4.24038779566334       -0.21628115247410
H            3.00805278432191        2.71138773651676        0.40810906087581
H            1.43755390494328        2.20008491892618       -1.09400643836359
H           -1.01141134016433        2.10301173686926       -1.04913958421662
H           -1.95136789790156       -2.27166829902583       -1.37023874376604
H           -3.76403103545457       -3.76293251321557       -2.11923093274739
H           -6.11507423529629       -3.16561483420900       -1.78331815933950
H           -6.73170677094147       -1.02908633598482       -0.70150796037866
H           -6.72418738307041        1.42337461398886        0.53958033387609
H           -6.09404045718796        3.55584924271305        1.62128423561947
H           -3.73976786873771        4.14051700978903        1.95342510881179
H           -1.93626881935604        2.63817333452773        1.19972750604718
H           -0.91966674990606       -1.76304915106066        0.79492620412605
H            2.83350531495513       -4.68125377245994        1.88330839513261
H            5.10484526774010       -3.78988309822368        1.44935991851741
H            5.36667671772323       -1.49656295564254        0.48478024408668
H            7.01370106388862        0.80141868491770       -1.59298558353631
