  50
        -80.79650821
 C          6.0766653689       -2.7185409534        0.7770781153
 C          4.8639383666       -3.2166823185        0.2916863188
 C          3.8261106700       -2.3435157966        0.0524625044
 C          4.0207321230       -0.9797110040        0.3147602157
 N          3.0156379262       -0.0525140852        0.1143876815
 C          1.6536993671       -0.2738046574        0.1910504375
 C          0.9465203862       -1.3360758771        0.7183221629
 C         -0.4428849780       -1.3018293921        0.6822391216
 C         -1.1209319681       -0.1878129115        0.1408801366
 N         -2.5140935783       -0.1954218262        0.1072633730
 C         -3.3378676797        0.8413507988        0.5012263443
 C         -3.0087573496        2.0637149150        1.0698773219
 C         -4.0444281992        2.9191758843        1.4053841240
 C         -5.3743150830        2.5659321650        1.1960596991
 C         -5.7102469978        1.3344196351        0.6611729108
 C         -4.6891267556        0.4617826198        0.3152366272
 C         -4.6682368475       -0.8702797747       -0.2255279165
 C         -5.6597122773       -1.7505238625       -0.6327394719
 C         -5.2830574937       -2.9774119064       -1.1508670754
 C         -3.9404604729       -3.3201253048       -1.2811105009
 C         -2.9339487212       -2.4571099293       -0.8825214406
 C         -3.3052706721       -1.2379583424       -0.3336386012
 C         -0.4288434124        0.9140139136       -0.3407839462
 C          0.9697599615        0.8914513863       -0.3092923241
 C          1.9561856894        1.8344673951       -0.6452686688
 N          1.8671194935        3.0790067431       -1.1340459752
 C          2.9801501822        3.7572506213       -1.3371046540
 C          4.2435722476        3.2553471804       -1.0858052866
 C          4.3804284894        1.9566410118       -0.5483532974
 C          3.2295197544        1.2472995918       -0.3397465425
 N          5.2024558297       -0.5023377048        0.7326372755
 C          6.1856548188       -1.3508655000        0.9551300670
 H          6.9072671527       -3.3731650110        0.9839178725
 H          4.7473863092       -4.2709919918        0.0886004723
 H          2.8980801188       -2.6851789466       -0.3766935186
 H          1.4438706759       -2.1675970084        1.1932128652
 H         -1.0139632785       -2.0984756769        1.1299834785
 H         -1.9821262307        2.3369196302        1.2568012580
 H         -3.8140468451        3.8786215111        1.8431130488
 H         -6.1545879702        3.2612775321        1.4671996545
 H         -6.7427640085        1.0540634313        0.5193341897
 H         -6.7011607810       -1.4792685295       -0.5511044855
 H         -6.0402736476       -3.6781583721       -1.4697078195
 H         -3.6772873479       -4.2770434904       -1.7061512963
 H         -1.8953213946       -2.7199983030       -1.0085707421
 H         -0.9457878336        1.7526001069       -0.7776787421
 H          2.8496184630        4.7595350159       -1.7230600330
 H          5.1141321374        3.8590008562       -1.2800247325
 H          5.3462892292        1.5509708027       -0.2944004379
 H          7.1088218780       -0.9024225247        1.2989342497
