  64
        -93.74402082
 C          1.5782928106       -4.2250847862       -1.5241082380
 C          0.7333179181       -3.9989860572       -0.2626090846
 C          1.5122213714       -4.4690178598        0.9741655351
 C         -0.5329397470       -4.8518884122       -0.3788634901
 C          0.4353879904       -2.5135498357       -0.1246372763
 C          1.4954237353       -1.6279539853       -0.0185356014
 C          1.2848010815       -0.2502156367        0.0492006536
 C         -0.0238670323        0.2732225192        0.0490667598
 C         -1.0935480723       -0.6505667077        0.0321728931
 C         -0.8605828209       -2.0130602831       -0.1024385374
 N         -2.3812395647       -0.1351378521        0.0894837536
 C         -3.6017857145       -0.7740072662        0.2797797524
 C         -3.9096706772       -2.0373692974        0.7659993388
 C         -5.2415689092       -2.3979049826        0.8751239262
 C         -6.2659130179       -1.5246488594        0.5286584871
 C         -5.9764190355       -0.2423651010        0.1047173111
 C         -4.6482810688        0.1390798978       -0.0055016428
 C         -4.0269354650        1.3951010839       -0.3263318351
 C         -4.5004605294        2.6472654231       -0.6797099541
 C         -3.5758626619        3.6574448856       -0.8982385059
 C         -2.2152929972        3.4439711876       -0.7300277708
 C         -1.6898765605        2.2047378639       -0.3500636402
 C         -2.6381875083        1.1867211284       -0.2072714347
 B         -0.2365679542        1.7811146572       -0.0353526788
 C          1.0245244756        2.6322269028        0.1874283953
 C          1.0194211520        4.0187566167        0.3872288156
 C          2.1739685919        4.7446901587        0.5684613235
 C          3.3990440441        4.0877819260        0.5544615486
 C          3.4512201220        2.7235588207        0.3901213158
 C          2.2758900232        1.9761830845        0.2221971021
 N          2.3680725056        0.6039628591        0.0942839383
 C          3.6690799772        0.0236844434        0.0149210019
 C          4.3111209049       -0.4157442438        1.1663804745
 C          5.5686339730       -0.9859482145        1.0776216164
 C          6.1867247214       -1.1184699769       -0.1552675970
 C          5.5465026740       -0.6799215596       -1.3023949007
 C          4.2883396885       -0.1092251900       -1.2208909476
 H          2.5229826135       -3.6912342355       -1.4687132105
 H          1.0402432463       -3.8762258174       -2.4030158742
 H          1.7916417548       -5.2846826957       -1.6475788323
 H          0.9300131515       -4.2890676853        1.8756358494
 H          2.4586759717       -3.9439669837        1.0690195189
 H          1.7191856691       -5.5347755339        0.9038106897
 H         -0.2554474949       -5.8993704973       -0.4783305961
 H         -1.1537770977       -4.7540535302        0.5085493169
 H         -1.1138614922       -4.5749063008       -1.2554058107
 H          2.5040195452       -2.0060226000       -0.0131645054
 H         -1.6934748151       -2.6745085626       -0.2391791928
 H         -3.1497736826       -2.7243791811        1.0998018678
 H         -5.4879048187       -3.3806098372        1.2497220753
 H         -7.2928549947       -1.8452949925        0.6196259739
 H         -6.7646813832        0.4591082948       -0.1235071222
 H         -5.5590072420        2.8306993016       -0.7883758208
 H         -3.9236792857        4.6371335050       -1.1936664707
 H         -1.5402920732        4.2660420392       -0.9136080443
 H          0.0683068133        4.5264905204        0.4184226347
 H          2.1337685974        5.8131873192        0.7202451971
 H          4.3154929175        4.6446561492        0.6856038555
 H          4.4101395318        2.2275487241        0.4040716827
 H          3.8174852452       -0.3075898188        2.1211068436
 H          6.0668768016       -1.3266800779        1.9728201382
 H          7.1682381636       -1.5629833839       -0.2216020020
 H          6.0267351470       -0.7827525586       -2.2638785070
 H          3.7775606083        0.2358499991       -2.1076774222
  64
        -93.74392653
 C          1.5634901290       -4.1870618755        1.6286698989
 C          0.7346383266       -3.9908429065        0.3514346352
 C         -0.5315862744       -4.8433896938        0.4702556108
 C          1.5302814678       -4.4866061802       -0.8642752110
 C          0.4358672786       -2.5089081456        0.1819480719
 C          1.4950939898       -1.6243339529        0.0597863418
 C          1.2845126217       -0.2469870376       -0.0195735343
 C         -0.0235577152        0.2776086636       -0.0069773150
 C         -1.0919464702       -0.6474964484        0.0079808324
 C         -0.8601294497       -2.0091846410        0.1515831373
 N         -2.3790082888       -0.1336231141       -0.0605697174
 C         -3.5943362946       -0.7723429732       -0.2786675998
 C         -3.8890381879       -2.0330579816       -0.7794725678
 C         -5.2176919064       -2.3932478539       -0.9227454629
 C         -6.2501884476       -1.5221948919       -0.5950213376
 C         -5.9718976404       -0.2430471088       -0.1541820831
 C         -4.6469818369        0.1385062357       -0.0100555807
 C         -4.0327458860        1.3924430408        0.3325370718
 C         -4.5136566553        2.6414453858        0.6869025140
 C         -3.5932877731        3.6494425196        0.9318007816
 C         -2.2297038406        3.4383272888        0.7857084393
 C         -1.6955017191        2.2032542815        0.4037684014
 C         -2.6415424651        1.1861439070        0.2383542587
 B         -0.2375480549        1.7844040752        0.0983825882
 C          1.0257710992        2.6383311159       -0.1050502862
 C          1.0236497186        4.0308603546       -0.2596928147
 C          2.1773008859        4.7593149805       -0.4359674339
 C          3.3997026950        4.0983240387       -0.4698485499
 C          3.4491203702        2.7292681306       -0.3514495460
 C          2.2749569399        1.9807361243       -0.1792953650
 N          2.3675991302        0.6058802524       -0.0857319945
 C          3.6667780534        0.0168688974       -0.1129303564
 C          4.3885779085       -0.1309821217        1.0641958208
 C          5.6438213878       -0.7133894901        1.0322178990
 C          6.1787889401       -1.1488697890       -0.1689774212
 C          5.4583793424       -1.0010589795       -1.3431070828
 C          4.2036851061       -0.4188185516       -1.3185391137
 H          1.0131585067       -3.8206604701        2.4928024384
 H          2.5070949701       -3.6512723754        1.5733425411
 H          1.7784030366       -5.2430488775        1.7780644909
 H         -1.1214414260       -4.5517610677        1.3359730421
 H         -0.2539839884       -5.8885888284        0.5910100524
 H         -1.1438748340       -4.7616213125       -0.4246793430
 H          0.9609165965       -4.3253125917       -1.7773383367
 H          2.4785928303       -3.9646775860       -0.9570480786
 H          1.7354163852       -5.5507568485       -0.7686415529
 H          2.5036580586       -2.0025455328        0.0561283549
 H         -1.6943611917       -2.6685569109        0.2915839072
 H         -3.1198718450       -2.7167903027       -1.0986978492
 H         -5.4548599817       -3.3735349236       -1.3094596821
 H         -7.2745027105       -1.8424072554       -0.7131103439
 H         -6.7661463889        0.4560642064        0.0602960721
 H         -5.5741429985        2.8240127013        0.7765124649
 H         -3.9466828153        4.6266956496        1.2288323133
 H         -1.5604007451        4.2599917494        0.9901452358
 H          0.0750230882        4.5434835828       -0.2577740938
 H          2.1380966758        5.8327021176       -0.5491878968
 H          4.3155152082        4.6558956669       -0.6026703965
 H          4.4053519864        2.2306369959       -0.4029504572
 H          3.9600105787        0.2120970650        1.9943247864
 H          6.2042268109       -0.8284192458        1.9478637223
 H          7.1578600717       -1.6030553734       -0.1907236714
 H          5.8739468600       -1.3393958756       -2.2805169132
 H          3.6307134020       -0.2980107706       -2.2261223839
  64
        -93.74356441
 C         -0.0081158786       -4.5154647235       -1.4520525872
 C          0.6735707332       -4.0096511987       -0.1727634704
 C          2.1527532012       -4.4004000800       -0.2380205585
 C          0.0508646553       -4.6939864909        1.0522716471
 C          0.4663330106       -2.5076696128       -0.0525620046
 C          1.5213383160       -1.6221981836        0.0512100510
 C          1.3019882310       -0.2425773368        0.1233931323
 C         -0.0066307148        0.2783147994        0.1092918393
 C         -1.0759271018       -0.6486825920        0.0752077361
 C         -0.8336563869       -2.0075782231       -0.0422276111
 N         -2.3667166691       -0.1365489005        0.0929850657
 C         -3.5906306397       -0.7839978310        0.2228318476
 C         -3.9153457452       -2.0486368260        0.6951792279
 C         -5.2470777894       -2.4247806326        0.7201432577
 C         -6.2572683104       -1.5637653647        0.3076120046
 C         -5.9561917938       -0.2769459153       -0.0937589692
 C         -4.6280083424        0.1192015925       -0.1211489492
 C         -4.0009848710        1.3802564992       -0.4085528209
 C         -4.4670018810        2.6288185621       -0.7842701808
 C         -3.5406834605        3.6453742461       -0.9603318626
 C         -2.1867246481        3.4393773473       -0.7373429631
 C         -1.6695187815        2.2036359265       -0.3356122682
 C         -2.6180637122        1.1820093239       -0.2234094321
 B         -0.2222945884        1.7854904980        0.0145317896
 C          1.0338871658        2.6410021586        0.2486066119
 C          1.0258854079        4.0290617162        0.4386396738
 C          2.1772113833        4.7563020709        0.6344524578
 C          3.4017300282        4.0983208289        0.6579223201
 C          3.4560766074        2.7330522761        0.5041974783
 C          2.2850845468        1.9866438396        0.3043946614
 N          2.3835566622        0.6145779191        0.1764096848
 C          3.6852559285        0.0490424632        0.0359398095
 C          4.3225099443       -0.5409567984        1.1210529139
 C          5.5726850574       -1.1108526980        0.9578605866
 C          6.1917095779       -1.0884955748       -0.2813850389
 C          5.5611309861       -0.4911106785       -1.3599957736
 C          4.3085384571        0.0759579544       -1.2049445955
 H          0.3692385558       -3.9746545520       -2.3173345861
 H         -1.0853305405       -4.3828989511       -1.4100003638
 H          0.1961038736       -5.5750097738       -1.5904872210
 H          2.6782611500       -4.1053630192        0.6671480675
 H          2.6395445968       -3.9438746706       -1.0968074895
 H          2.2374060935       -5.4807354790       -0.3365569782
 H          0.1812701236       -5.7721126232        0.9873455679
 H          0.5299494302       -4.3418013863        1.9635242975
 H         -1.0124421365       -4.4832918240        1.1235243646
 H          2.5313257084       -1.9891645658        0.0532794535
 H         -1.6572387084       -2.6824825517       -0.1797663812
 H         -3.1713083511       -2.7255421830        1.0815923487
 H         -5.5052787505       -3.4099965203        1.0800671651
 H         -7.2838535899       -1.8973227123        0.3305392381
 H         -6.7364474432        0.4160661175       -0.3701632639
 H         -5.5207595428        2.8042119898       -0.9417221084
 H         -3.8816270718        4.6233487214       -1.2691935694
 H         -1.5102216408        4.2653298882       -0.8958932763
 H          0.0748076184        4.5375268717        0.4515018829
 H          2.1344642793        5.8263343567        0.7748680980
 H          4.3147871605        4.6551426211        0.8115145535
 H          4.4124619070        2.2340971604        0.5524653174
 H          3.8290382467       -0.5544948367        2.0818827627
 H          6.0641878525       -1.5748866988        1.7998759418
 H          7.1659344526       -1.5364467980       -0.4057992094
 H          6.0430081901       -0.4692059748       -2.3259452586
 H          3.8041024052        0.5425345404       -2.0383314879
  64
        -93.74249925
 C          0.8402791381       -4.1438781899       -2.0740998863
 C          0.7078266344       -3.9727169420       -0.5538070554
 C          1.9972514155       -4.4555917529        0.1229859699
 C         -0.4428966164       -4.8522084344       -0.0486849607
 C          0.4527902454       -2.4971446136       -0.2836065598
 C          1.5091440922       -1.6124705098       -0.1562676139
 C          1.2930312455       -0.2364680287       -0.0436388975
 C         -0.0139796701        0.2886631405       -0.0322572795
 C         -1.0786367020       -0.6421641786       -0.0432885404
 C         -0.8439578841       -1.9970292541       -0.2272408716
 N         -2.3658087436       -0.1392057360        0.0742228132
 C         -3.5675582980       -0.7920254119        0.3239658195
 C         -3.8364765646       -2.0713011708        0.7918180360
 C         -5.1566362811       -2.4429952571        0.9772223821
 C         -6.2053328386       -1.5660017825        0.7258277560
 C         -5.9502872986       -0.2703854403        0.3209453505
 C         -4.6339944515        0.1221837754        0.1336730490
 C         -4.0399548013        1.3894976481       -0.1937920667
 C         -4.5439121378        2.6461906905       -0.4814963894
 C         -3.6402563038        3.6655622177       -0.7385551080
 C         -2.2705200494        3.4556292681       -0.6696157155
 C         -1.7097570149        2.2134591765       -0.3528357835
 C         -2.6447173150        1.1878923128       -0.1711246793
 B         -0.2344075012        1.7964042138       -0.1262711662
 C          1.0413594517        2.6499955805        0.0031562631
 C          1.0547993230        4.0487496133        0.0894532766
 C          2.2158987626        4.7775384440        0.2027581450
 C          3.4345919065        4.1110286060        0.2496335199
 C          3.4713737210        2.7378839035        0.1991791258
 C          2.2900676067        1.9901827580        0.0774154733
 N          2.3783181889        0.6129938812        0.0303263735
 C          3.6646112579        0.0139351918        0.1813532886
 C          4.0755007207       -0.3992502078        1.4429525839
 C          5.3133808953       -0.9947227030        1.6047532729
 C          6.1433687213       -1.1779611151        0.5110073336
 C          5.7347147527       -0.7642745388       -0.7462719099
 C          4.4964348798       -0.1692259332       -0.9156580459
 H          1.6736023308       -3.5551821270       -2.4511369662
 H         -0.0662600660       -3.8102416673       -2.5744985488
 H          1.0110190444       -5.1888416550       -2.3238431230
 H          1.9893314157       -4.2061765705        1.1816613452
 H          2.8802737896       -4.0158626339       -0.3323861508
 H          2.0820870877       -5.5356640286        0.0244270260
 H         -0.1688743950       -5.9014769432       -0.1354316490
 H         -0.6556190305       -4.6400254935        0.9968764534
 H         -1.3474760140       -4.7030559140       -0.6318452423
 H          2.5199814155       -1.9789524548       -0.1812453442
 H         -1.6773844551       -2.6540212079       -0.3834179947
 H         -3.0535242877       -2.7626680932        1.0557818064
 H         -5.3733209919       -3.4374798794        1.3387017979
 H         -7.2224890211       -1.8951928189        0.8763800180
 H         -6.7552162762        0.4321081102        0.1658039747
 H         -5.6082534883        2.8256084843       -0.5109163405
 H         -4.0103969760        4.6505423872       -0.9853106563
 H         -1.6202369683        4.2894309890       -0.8833630142
 H          0.1123818035        4.5711421237        0.0845635070
 H          2.1845421179        5.8555398490        0.2608346679
 H          4.3564517749        4.6674422780        0.3378763343
 H          4.4247874582        2.2352499341        0.2602290192
 H          3.4169167458       -0.2514859792        2.2861662561
 H          5.6299188109       -1.3149252217        2.5860587842
 H          7.1091424721       -1.6430181354        0.6388217338
 H          6.3812613413       -0.9069798625       -1.5991451306
 H          4.1664628771        0.1555426645       -1.8914935526
