  121
       -168.87597362
 C        -10.5216654776       -5.3220466149        1.4429260108
 C        -10.7260142323       -4.5103113994        0.1558910501
 C        -10.4724757656       -5.4027867093       -1.0672904450
 C        -12.1853900369       -4.0491663064        0.1146136862
 C         -9.7453397810       -3.3469118991        0.1360977333
 C         -8.3722424290       -3.6197769542        0.1957459111
 C         -7.4099323107       -2.6309168403        0.1962222796
 C         -7.8308181477       -1.3108733322        0.1434711863
 C         -9.2055271114       -1.0111846946        0.0440141514
 C        -10.1530120358       -2.0264714356        0.0470415156
 C         -9.3037553096        0.4181922816       -0.0610838859
 C        -10.3825808191        1.2845046915       -0.1787162282
 C        -10.1629258560        2.6500024051       -0.2469231299
 C        -11.2942138682        3.6565273619       -0.3976001991
 C        -12.6683456316        2.9870533624       -0.4878953420
 C        -11.0767906022        4.4680070231       -1.6826562704
 C        -11.3008604422        4.5965741597        0.8158719971
 C         -8.8450631411        3.1198411489       -0.1662573124
 C         -7.7548305102        2.2819884962       -0.0488025104
 C         -7.9839599736        0.9147629980       -0.0202320012
 N         -7.0987925021       -0.1389723631        0.1062312545
 C         -5.7060007014       -0.0486974778        0.1627311126
 C         -5.0088060425        0.7532073657       -0.7387911963
 C         -3.6325927496        0.8237573856       -0.6887666894
 C         -2.9118461408        0.0781288932        0.2434895768
 C         -1.4498468370        0.1043590199        0.2614694562
 C         -0.7012651626       -1.0237551008        0.5235465937
 C          0.6981700728       -1.0235761523        0.5229792076
 C          1.4519068530        0.1055183217        0.2723334021
 C          2.9137981397        0.0731168467        0.2610674474
 C          3.6128968578       -0.8215608026        1.0741941034
 C          4.9891969993       -0.8890265177        1.0382334222
 C          5.7105115188       -0.0624746811        0.1793732285
 N          7.1035713620       -0.1549591391        0.1175821593
 C          7.8252842951       -1.3218256202       -0.0429417253
 C          7.3912403422       -2.6282559855       -0.2063041037
 C          8.3437552495       -3.6098799836       -0.3879553218
 C          9.7186110264       -3.3404491988       -0.4224586806
 C         10.6875170206       -4.4957208583       -0.6284250385
 C         10.5179581287       -5.5058102182        0.5151566829
 C         12.1494502344       -4.0409113404       -0.6469519499
 C         10.3841760072       -5.1751970263       -1.9713867337
 C         10.1392916137       -2.0287916807       -0.2798098225
 C          9.2023424830       -1.0205609318       -0.0952019216
 C          9.3126002419        0.4044640057        0.0507256578
 C         10.3979350881        1.2693639456        0.0988266263
 C         10.1875178065        2.6266440321        0.2753909894
 C         11.3280659732        3.6324310174        0.3332247953
 C         12.6997805214        2.9768555129        0.1508312942
 C         11.3134652046        4.3335259986        1.6988829166
 C         11.1445294534        4.6681817017       -0.7849284074
 C          8.8714217126        3.0872189209        0.4175401933
 C          7.7745755917        2.2509804570        0.3733558155
 C          7.9963525081        0.8974744881        0.1712137260
 C          5.0239014942        0.8486931253       -0.6198175200
 C          3.6474660581        0.9161287596       -0.5748616380
 C          0.7215549663        1.2903265211        0.0065149762
 N          1.2120447058        2.5075884426       -0.2366437525
 S         -0.0051642829        3.5305639527       -0.4533416865
 N         -1.2176612235        2.4991143401       -0.2560992059
 C         -0.7198311938        1.2869538190       -0.0040829919
 C         -3.6173597639       -0.7142313006        1.1496298601
 C         -4.9945298453       -0.7695667638        1.1201149485
 H        -10.6778688385       -4.6893070679        2.3141294892
 H        -11.2305261255       -6.1465227222        1.4830408459
 H         -9.5183317207       -5.7345270222        1.4973782135
 H        -11.1770576393       -6.2317940060       -1.0797827293
 H         -9.4660696755       -5.8115357988       -1.0573875863
 H        -10.5974214537       -4.8286007005       -1.9829384687
 H        -12.3975395443       -3.5034337540       -0.8016030740
 H        -12.4194283061       -3.4183581546        0.9688622424
 H        -12.8407929989       -4.9171815716        0.1473017900
 H         -8.0382666226       -4.6452015513        0.2394766726
 H         -6.3616633624       -2.8875787258        0.2224616366
 H        -11.1938998220       -1.7599426626       -0.0257338103
 H        -11.3755030045        0.8688903751       -0.2124093061
 H        -12.7217728475        2.3199672192       -1.3450602066
 H        -12.8901846309        2.4257051047        0.4166129331
 H        -13.4358153315        3.7493217131       -0.6065096815
 H        -10.1418056966        5.0198160881       -1.6499110996
 H        -11.8879592824        5.1802793842       -1.8185548676
 H        -11.0511416742        3.8048628550       -2.5448697398
 H        -11.4340861297        4.0251731891        1.7321110602
 H        -10.3697773172        5.1506593641        0.8930240165
 H        -12.1169074301        5.3113127699        0.7322101387
 H         -8.6604180345        4.1828088968       -0.1936275178
 H         -6.7576417173        2.6879193246        0.0293560351
 H         -5.5528983755        1.3013952304       -1.4929105523
 H         -3.1020511245        1.4444718322       -1.3931015997
 H         -1.2110092443       -1.9585462659        0.7055307612
 H          1.2024880942       -1.9620227725        0.6986401263
 H          3.0744706139       -1.4526850655        1.7654300989
 H          5.5181780996       -1.5704986215        1.6877919721
 H          6.3403126824       -2.8759144993       -0.2071579750
 H          8.0007038978       -4.6255312377       -0.5131045521
 H          9.5103684909       -5.9110553543        0.5402349750
 H         11.2144496561       -6.3325218403        0.3921031385
 H         10.7160980793       -5.0262345207        1.4714865643
 H         12.3314553681       -3.3448340209       -1.4623394044
 H         12.4238199043       -3.5694374744        0.2937380237
 H         12.7959869074       -4.9041906093       -0.7915796858
 H          9.3772145696       -5.5819277971       -1.9921708699
 H         11.0838939493       -5.9898295113       -2.1461522532
 H         10.4784859480       -4.4580730960       -2.7841542598
 H         11.1822111030       -1.7625935968       -0.3152871964
 H         11.3886407797        0.8584204133        0.0019383900
 H         12.7691108389        2.4781168336       -0.8130269116
 H         12.8970976444        2.2565861944        0.9412337688
 H         13.4744701349        3.7399731992        0.1911689432
 H         11.4207380501        3.6019441567        2.4970610106
 H         12.1367360798        5.0417117914        1.7659765518
 H         10.3851074650        4.8749817354        1.8565837688
 H         11.9626946498        5.3852211322       -0.7701283892
 H         11.1346089196        4.1750512188       -1.7547412973
 H         10.2123007951        5.2138806291       -0.6710810755
 H          8.6940888863        4.1402944709        0.5735683406
 H          6.7776320656        2.6438034083        0.5052258054
 H          5.5772574828        1.4856629722       -1.2934470883
 H          3.1267589824        1.6185136746       -1.2054511916
 H         -3.0807265755       -1.2676181640        1.9061847623
 H         -5.5308427149       -1.3590628106        1.8484998835
