  103
  -158.665232153500       0.529260738595979      !
 C          8.3406328035        1.5568722790       -1.5501536728
 C          7.1452069113        1.6836694518       -0.8617447363
 C          6.5306459942        0.5725394317       -0.3185398318
 C          7.1063402191       -0.6897108339       -0.4616637930
 N          6.4807097649       -1.8170493951        0.0857901388
 C          7.2396456098       -2.8206870888        0.6951269679
 C          6.8447289924       -4.1556422291        0.6056599627
 C          7.5921445794       -5.1449851672        1.2138397513
 C          8.7460321755       -4.8254550573        1.9105472529
 C          9.1457734025       -3.5019909431        1.9973862692
 C          8.4004183816       -2.5040185672        1.4005819717
 C          5.0868574522       -1.9086315073        0.0505635855
 C          4.3823238541       -1.4755685478       -1.0733464707
 C          3.0056912885       -1.5350304796       -1.1013526377
 C          2.2836374964       -2.0162488365       -0.0082419091
 C          0.8161223488       -1.9974189098       -0.0205254223
 C          0.1013827349       -2.3066410393       -1.1779500083
 C         -1.2732114180       -2.2242705362       -1.2004322625
 C         -1.9805548848       -1.8116832909       -0.0699451603
 C         -3.4270399149       -1.7205198622       -0.1661790263
 N         -4.1473817498       -2.5447027011       -0.8855199598
 C         -5.4376709544       -2.1527836214       -0.7262890684
 C         -6.6057471367       -2.7562826339       -1.2697060240
 C         -6.5245050715       -3.8991829628       -2.0718554954
 C         -7.6653214377       -4.4870384631       -2.5580377170
 C         -8.9062657694       -3.9383812795       -2.2405815488
 C         -8.9971941562       -2.8111210240       -1.4579584318
 C         -7.8538907760       -2.1740781187       -0.9516860317
 C         -7.9136505724       -0.9605081876       -0.1552978339
 C         -9.1295731101       -0.3121169313        0.1032023335
 C         -9.1943470416        0.8620642678        0.8150696102
 C         -8.0289451967        1.4545277008        1.2900359701
 C         -6.8178665966        0.8479492480        1.0658970611
 C         -6.7322571198       -0.3651140828        0.3675037313
 C         -5.5044018568       -1.0363335965        0.1058713181
 N         -4.2021153412       -0.7757447165        0.4704299311
 C         -3.7237895134        0.2457746019        1.3158521589
 C         -4.0627302451        0.2408909068        2.6663903341
 C         -3.5988819597        1.2525949451        3.4864892066
 C         -2.8023003578        2.2598724159        2.9706459057
 C         -2.4406753541        2.2597649457        1.6263088071
 C         -1.6187464760        3.3565657687        1.0832474345
 C         -2.0908816023        4.6599455931        1.2014353604
 C         -1.3902890698        5.7275671419        0.6794747464
 C         -0.1749266769        5.5286355881        0.0231829551
 C          0.5676849558        6.6071832347       -0.5403898047
 C          1.7471869010        6.3955333545       -1.1679834579
 C          2.2974959404        5.0848980407       -1.2821895836
 C          3.5125201704        4.8422537461       -1.9248078820
 C          4.0218223438        3.5593474734       -2.0145049307
 C          3.3404048185        2.4915520840       -1.4603733865
 C          2.1195984988        2.6875873784       -0.8126260258
 C          1.3908031266        1.6140815500       -0.2248208418
 C          0.1953855525        1.8176223109        0.3745668879
 C         -0.3848324669        3.1180764874        0.4550200185
 C          0.3397703419        4.2128364704       -0.0815133022
 C          1.5829802259        3.9952897724       -0.7250629599
 C         -2.9072474539        1.2422349889        0.7998206813
 C         -1.2747330459       -1.5392492561        1.1000248723
 C          0.1025858285       -1.6345526227        1.1206273811
 C          2.9948121280       -2.4669472996        1.1026956098
 C          4.3724468985       -2.4209036803        1.1337140658
 C          8.3095604460       -0.8121137464       -1.1552733694
 C          8.9190963272        0.3058622176       -1.6909441212
 H          8.8201910044        2.4272421453       -1.9718794183
 H          6.6907097292        2.6551172926       -0.7342152515
 H          5.6048593617        0.6767915917        0.2285560604
 H          5.9512004148       -4.4094042253        0.0541298581
 H          7.2750188560       -6.1745784723        1.1355978382
 H          9.3292758924       -5.6016667082        2.3821226249
 H         10.0414643781       -3.2423967967        2.5424880279
 H          8.7094201675       -1.4719864526        1.4802503628
 H          4.9271712994       -1.0900585368       -1.9232985303
 H          2.4783760391       -1.1820910226       -1.9761672522
 H          0.6324365502       -2.6286803486       -2.0616168290
 H         -1.8286746935       -2.4698518777       -2.0920320976
 H         -5.5445116433       -4.2976413542       -2.2838371540
 H         -7.6077171396       -5.3702676212       -3.1770271028
 H         -9.8080589140       -4.4028673850       -2.6130774729
 H         -9.9796495894       -2.4252704019       -1.2362066137
 H        -10.0499514905       -0.7303945496       -0.2710085176
 H        -10.1502277120        1.3323824171        0.9932164740
 H         -8.0744306264        2.3898608348        1.8282445756
 H         -5.9165032882        1.3226770763        1.4191469830
 H         -4.6941701483       -0.5448276107        3.0543529668
 H         -3.8627187268        1.2557405502        4.5335096926
 H         -2.4422965396        3.0488780371        3.6141939564
 H         -3.0378608759        4.8288063596        1.6947856182
 H         -1.7841291341        6.7294866988        0.7722760530
 H          0.1589137378        7.6040476372       -0.4530851916
 H          2.3014953890        7.2192941995       -1.5953058195
 H          4.0543420728        5.6719858372       -2.3562137164
 H          4.9601388019        3.3892321413       -2.5227535717
 H          3.7469398507        1.4927021393       -1.5264049800
 H          1.8206023548        0.6247211629       -0.2644476640
 H         -0.3330035866        0.9874578201        0.8182123860
 H         -2.6526923158        1.2352293943       -0.2501625104
 H         -1.7991055317       -1.2634483953        2.0032879743
 H          0.6359429082       -1.3960798174        2.0296210507
 H          2.4599194474       -2.8677777640        1.9509631950
 H          4.9074678496       -2.7706693463        2.0044802415
 H          8.7584435156       -1.7877644430       -1.2715260439
 H          9.8495721261        0.1978542719       -2.2287346831
  103
  -158.664991058400       0.410081372247488      !
 C          8.1626435293        1.6321955877       -1.6445992999
 C          6.9722556275        1.7306247387       -0.9428697773
 C          6.4077384332        0.6104682384       -0.3648283766
 C          7.0313551179       -0.6312449053       -0.4834288718
 N          6.4582638082       -1.7679254616        0.1029658642
 C          7.2640270653       -2.7088854569        0.7495412728
 C          6.9307956330       -4.0632181347        0.7214047358
 C          7.7277893036       -4.9894829649        1.3652069499
 C          8.8703504311       -4.5872380459        2.0374003857
 C          9.2087126781       -3.2441601495        2.0636550404
 C          8.4135870428       -2.3087378951        1.4310195518
 C          5.0701217846       -1.9210144634        0.0692221958
 C          4.3530335841       -1.5512143946       -1.0693431554
 C          2.9791462448       -1.6533284151       -1.0944760900
 C          2.2709488270       -2.1169755920        0.0155486739
 C          0.8035771652       -2.1149539275        0.0104244558
 C          0.0824518709       -2.4354177926       -1.1401297816
 C         -1.2912787112       -2.3383902791       -1.1612042253
 C         -1.9926431554       -1.9036052024       -0.0351294820
 C         -3.4351665213       -1.7737439944       -0.1403534484
 N         -4.1712539972       -2.5601465040       -0.8862574966
 C         -5.4493851390       -2.1253805266       -0.7435091751
 C         -6.6271541368       -2.6702144736       -1.3266728080
 C         -6.5717694524       -3.7986693343       -2.1512098369
 C         -7.7217979206       -4.3249966038       -2.6838894199
 C         -8.9464218305       -3.7274215851       -2.3925979762
 C         -9.0117338919       -2.6146654715       -1.5871241694
 C         -7.8579522746       -2.0412759677       -1.0307772666
 C         -7.8901316118       -0.8467192606       -0.2044086217
 C         -9.0861211778       -0.1589617987        0.0453571795
 C         -9.1229839907        0.9956655555        0.7904663835
 C         -7.9478013248        1.5275685715        1.3107606556
 C         -6.7556653920        0.8815127977        1.0955784989
 C         -6.6995574214       -0.3120095675        0.3614556765
 C         -5.4921430531       -1.0215581744        0.1070502385
 N         -4.1888236342       -0.8139083511        0.4994627851
 C         -3.6905784379        0.1832313803        1.3631851432
 C         -4.0137220822        0.1522925885        2.7171750431
 C         -3.5272469022        1.1400219560        3.5535930528
 C         -2.7250472777        2.1493323133        3.0504936296
 C         -2.3808563901        2.1757576190        1.7017812263
 C         -1.5570280411        3.2740359483        1.1663004464
 C         -2.0037864733        4.5813657138        1.3327994462
 C         -1.3091390566        5.6499605311        0.8055314337
 C         -0.1278386156        5.4476943480        0.0902345117
 C          0.6011754737        6.5265727718       -0.4898253616
 C          1.7447307773        6.3109500032       -1.1797659108
 C          2.2705439958        4.9957004110       -1.3436925378
 C          3.4461627165        4.7484571935       -2.0545583737
 C          3.9335104152        3.4612651959       -2.1901268361
 C          3.2692960160        2.3931754629       -1.6153567412
 C          2.0863350980        2.5933090379       -0.9024992544
 C          1.3747672400        1.5194260150       -0.2943762420
 C          0.2104719223        1.7269570938        0.3621655992
 C         -0.3512839443        3.0322598910        0.4866118824
 C          0.3637638858        4.1276805597       -0.0613438830
 C          1.5716034368        3.9059239778       -0.7676662025
 C         -2.8698268746        1.1820184649        0.8591941604
 C         -1.2818324145       -1.6335297385        1.1326491578
 C          0.0944071215       -1.7393556247        1.1506255950
 C          2.9964374708       -2.5154239651        1.1373648459
 C          4.3720585465       -2.4255871143        1.1664667107
 C          8.2292001778       -0.7253185033       -1.1903740536
 C          8.7872577367        0.4011252709       -1.7632597590
 H          8.6029190373        2.5095131436       -2.0939539378
 H          6.4820847177        2.6867472884       -0.8328280784
 H          5.4844962461        0.6922474566        0.1904948141
 H          6.0465342022       -4.3819535824        0.1889253466
 H          7.4584370163       -6.0350921729        1.3344378939
 H          9.4924142343       -5.3145841797        2.5364873970
 H         10.0947427103       -2.9197973318        2.5895101018
 H          8.6739732475       -1.2608507650        1.4647303203
 H          4.8865088153       -1.1777190087       -1.9317729561
 H          2.4421837767       -1.3457349716       -1.9804207230
 H          0.6070189120       -2.7730808291       -2.0218277656
 H         -1.8506622389       -2.5854481818       -2.0499179616
 H         -5.6040722420       -4.2351786542       -2.3438529479
 H         -7.6840419628       -5.1967007492       -3.3204598743
 H         -9.8556387905       -4.1417421305       -2.8041691727
 H         -9.9823900114       -2.1887860776       -1.3881124766
 H        -10.0130129888       -0.5304478544       -0.3607118250
 H        -10.0642625165        1.4973501666        0.9608779148
 H         -7.9707516055        2.4466026325        1.8776619607
 H         -5.8458673633        1.3089936977        1.4855354558
 H         -4.6497721037       -0.6343346099        3.0956519335
 H         -3.7779800467        1.1226936250        4.6037165086
 H         -2.3473238719        2.9189619741        3.7072593415
 H         -2.9281284389        4.7524212376        1.8666387212
 H         -1.6830264758        6.6552881648        0.9360861983
 H          0.2111312069        7.5269787188       -0.3653626697
 H          2.2865425505        7.1347732122       -1.6228370742
 H          3.9749278087        5.5786887981       -2.5009256646
 H          4.8404259811        3.2870394949       -2.7511837660
 H          3.6605132754        1.3912263487       -1.7162793708
 H          1.7915324491        0.5262633403       -0.3666720458
 H         -0.3055555906        0.8959879278        0.8188243294
 H         -2.6302968953        1.1961507666       -0.1942378231
 H         -1.8011591292       -1.3478553510        2.0355066044
 H          0.6312533763       -1.4967275746        2.0563550067
 H          2.4749274696       -2.9069919337        1.9981753945
 H          4.9168101238       -2.7298682744        2.0481712479
 H          8.7142462961       -1.6857350983       -1.2871750893
 H          9.7138661074        0.3154513862       -2.3117106174
  103
  -158.662697298600       3.620187166423702E-002 !
 C          7.8424308578        1.7729780774       -1.0526910076
 C          6.6337643941        1.7172987707       -0.3781666685
 C          6.1120847002        0.5028833611        0.0237887387
 C          6.8012730056       -0.6805744422       -0.2423489696
 N          6.2823348881       -1.9112728339        0.1765129913
 C          7.1287124782       -2.9063066594        0.6744469895
 C          6.8454336218       -4.2519269748        0.4395324525
 C          7.6783601361       -5.2354531461        0.9356680398
 C          8.8075078329       -4.8980262292        1.6637828440
 C          9.0949559020       -3.5631217910        1.8973214152
 C          8.2636910433       -2.5721604258        1.4131376056
 C          4.9009754152       -2.1246563578        0.1305529775
 C          4.1566110456       -1.6730176707       -0.9592455850
 C          2.7901996844       -1.8527488937       -0.9927454028
 C          2.1219364784       -2.4703283051        0.0639200768
 C          0.6560039090       -2.5459144517        0.0570637661
 C         -0.0470051445       -2.8634587097       -1.1040144299
 C         -1.4245343726       -2.7939735630       -1.1350989793
 C         -2.1337538576       -2.3802102124       -0.0098827028
 C         -3.5732594810       -2.1747759934       -0.1095313732
 N         -4.4219452750       -3.0302668937       -0.6114777936
 C         -5.6450973142       -2.4391721811       -0.5181147347
 C         -6.9069919197       -2.9873502092       -0.8780112850
 C         -7.0137818239       -4.2837190229       -1.3927926234
 C         -8.2449249253       -4.8115950301       -1.6903734627
 C         -9.3888499924       -4.0463577781       -1.4711906071
 C         -9.2948370690       -2.7678128516       -0.9736527845
 C         -8.0540048183       -2.1881163703       -0.6673943959
 C         -7.9172046792       -0.8262276149       -0.1811617214
 C         -9.0244646507        0.0250260725       -0.0560367151
 C         -8.8975595179        1.3326383778        0.3485416781
 C         -7.6398399723        1.8585515245        0.6266652728
 C         -6.5306730481        1.0555411393        0.5277460205
 C         -6.6429194293       -0.2914527663        0.1543563427
 C         -5.5274720025       -1.1685659439        0.0416846925
 N         -4.1862866475       -1.0127913618        0.3132074466
 C         -3.5085609638        0.0438144430        0.9489740536
 C         -3.8917823979        0.4604385485        2.2203432436
 C         -3.1692176896        1.4539712515        2.8557992156
 C         -2.0587606658        2.0132893968        2.2489269115
 C         -1.6606868414        1.5937880436        0.9814840016
 C         -0.4249863886        2.1042371647        0.3634635372
 C          0.5444950012        1.1755412801       -0.0058895357
 C          1.7602839111        1.5715497214       -0.5210948247
 C          2.0490863030        2.9247782187       -0.6995242421
 C          3.2987978538        3.3653026722       -1.2239778983
 C          3.5654124265        4.6813192155       -1.3875826859
 C          2.6000524243        5.6761221458       -1.0524291902
 C          2.8517246098        7.0388889164       -1.2175199441
 C          1.8910201246        7.9797152015       -0.8948406294
 C          0.6598568017        7.5872019033       -0.4030675636
 C          0.3656998594        6.2356021780       -0.2178445488
 C         -0.8970167862        5.7912284254        0.2710554417
 C         -1.1594651625        4.4767124937        0.4559344549
 C         -0.1823117891        3.4755057891        0.1743218495
 C          1.0679098679        3.8870263296       -0.3551522971
 C          1.3440992864        5.2638791242       -0.5407476142
 C         -2.4020659124        0.6127898841        0.3325206763
 C         -1.4418621876       -2.1299156723        1.1732399306
 C         -0.0657025498       -2.2203451772        1.2054763607
 C          2.8733150848       -2.9395755934        1.1392451136
 C          4.2425655043       -2.7796906492        1.1714088516
 C          8.0155371729       -0.6189186319       -0.9254491897
 C          8.5283450593        0.6001868761       -1.3238009320
 H          8.2479749198        2.7238943400       -1.3632898144
 H          6.0987154957        2.6277174368       -0.1499733740
 H          5.1733931992        0.4641031185        0.5578776513
 H          5.9717408302       -4.5178400450       -0.1375514584
 H          7.4493815525       -6.2732030446        0.7426195751
 H          9.4593411607       -5.6692358125        2.0448051206
 H          9.9695053830       -3.2902411114        2.4696102470
 H          8.4838871490       -1.5329124573        1.6086248568
 H          4.6615369225       -1.1763606971       -1.7755744634
 H          2.2250729992       -1.4899032896       -1.8392557529
 H          0.4952637783       -3.1649060473       -1.9882393830
 H         -1.9690044811       -3.0297013844       -2.0366903751
 H         -6.1038238466       -4.8456622326       -1.5353144351
 H         -8.3327885677       -5.8130474640       -2.0852059151
 H        -10.3612286459       -4.4617262720       -1.6940240877
 H        -10.2077732306       -2.2153299519       -0.8168920138
 H        -10.0106955788       -0.3402038319       -0.2928725794
 H         -9.7741981085        1.9580390983        0.4328919925
 H         -7.5350187179        2.8944686090        0.9138464836
 H         -5.5549458887        1.4726525992        0.7222228795
 H         -4.7449352037        0.0030433731        2.6993074963
 H         -3.4650238708        1.7798944170        3.8419055668
 H         -1.4770916730        2.7604944204        2.7682070283
 H          0.3427745852        0.1249017099        0.1424006841
 H          2.5028633277        0.8312021861       -0.7810564088
 H          4.0274494586        2.6128281609       -1.4909301825
 H          4.5169717792        5.0082456653       -1.7830724525
 H          3.8103193781        7.3539641883       -1.6045880322
 H          2.1030400210        9.0302613878       -1.0317752067
 H         -0.0881564226        8.3276971467       -0.1582178113
 H         -1.6498261985        6.5366989200        0.4857979558
 H         -2.1301841155        4.1609834899        0.8089521635
 H         -2.1144043676        0.2888436311       -0.6568911014
 H         -1.9813241801       -1.8565173666        2.0684852382
 H          0.4630650490       -1.9910174555        2.1193806630
 H          2.3773908532       -3.4417357067        1.9569065203
 H          4.8134496627       -3.1462186000        2.0120345671
 H          8.5502550645       -1.5327036420       -1.1399044629
 H          9.4685541837        0.6337773095       -1.8543469864
  103
  -158.662326634800       2.445601749229586E-002 !
 C          8.6865967166       -4.8502687365        0.0280835606
 C          7.4988719894       -4.7602534757       -0.6790862593
 C          6.7205684610       -3.6222165631       -0.5999882341
 C          7.1180466592       -2.5530560135        0.2031206442
 N          6.3319635138       -1.4008370502        0.2940437118
 C          6.9347223772       -0.1448107105        0.4289714885
 C          6.3770423376        0.8091049386        1.2791429776
 C          6.9628250869        2.0534525443        1.4110415945
 C          8.1130099806        2.3633505388        0.7041332485
 C          8.6763014952        1.4158894716       -0.1351761446
 C          8.0946516452        0.1711038410       -0.2770666002
 C          4.9378973184       -1.4902112696        0.2144397492
 C          4.2562296440       -2.5351102491        0.8385616944
 C          2.8844681941       -2.6317007185        0.7375902667
 C          2.1515780622       -1.6990263135        0.0063573941
 C          0.6937922664       -1.8145170500       -0.1227694562
 C          0.0726870144       -1.6133911384       -1.3538553299
 C         -1.3013152215       -1.6703413187       -1.4705572095
 C         -2.0911742284       -1.9035176363       -0.3486272009
 C         -3.5447576991       -1.7794197107       -0.4439519118
 N         -4.3314816636       -2.4525776717       -1.2353158299
 C         -5.5908208569       -1.9917442670       -0.9872983956
 C         -6.8120636318       -2.4377980585       -1.5628879873
 C         -6.8355868464       -3.4788704334       -2.4971849498
 C         -8.0281861404       -3.9213627356       -3.0115519945
 C         -9.2171097097       -3.3270057070       -2.5925406494
 C         -9.2053325465       -2.2980577355       -1.6803407123
 C         -8.0062488183       -1.8104358277       -1.1382037386
 C         -7.9577799822       -0.7000698319       -0.2031228135
 C         -9.1123274926        0.0047002131        0.1667026942
 C         -9.0657052962        1.0889457099        1.0105662226
 C         -7.8461856330        1.5335040612        1.5121769828
 C         -6.6928992306        0.8654673925        1.1831217316
 C         -6.7236611527       -0.2624104300        0.3506418552
 C         -5.5583372367       -0.9892346100       -0.0205059741
 N         -4.2339204654       -0.8657907776        0.3313420416
 C         -3.5963352823       -0.0917774958        1.3168982885
 C         -3.9853047595       -0.1567674588        2.6512502106
 C         -3.2270300523        0.4930045598        3.6091130542
 C         -2.0603125158        1.1503879911        3.2588762866
 C         -1.6672868493        1.2223256241        1.9258742478
 C         -0.3647804423        1.7791185990        1.5260173934
 C          0.7777446765        1.2313858301        2.1019495345
 C          2.0387625724        1.5989893504        1.6840854517
 C          2.2046728792        2.5410375443        0.6679307924
 C          3.4922772536        2.9225116280        0.1914913567
 C          3.6344743099        3.8440087878       -0.7883643748
 C          2.4999116970        4.4753948588       -1.3774125123
 C          2.6232040371        5.4380306662       -2.3804359313
 C          1.5031001574        6.0359851440       -2.9279347020
 C          0.2373836766        5.6891179492       -2.4927153378
 C          0.0662225363        4.7292583313       -1.4941069268
 C         -1.2212513257        4.3563236487       -1.0099793692
 C         -1.3674928077        3.4179576819       -0.0462184275
 C         -0.2394425766        2.7587023022        0.5275571972
 C          1.0557795165        3.1374452112        0.0922096236
 C          1.2068498669        4.1114522903       -0.9254264858
 C         -2.4675567927        0.6310266317        0.9558587055
 C         -1.4734513529       -2.1565672730        0.8740197046
 C         -0.0986617899       -2.1226113513        0.9806749622
 C          2.8358875865       -0.6493762806       -0.6036604197
 C          4.2063748074       -0.5400808542       -0.4984984368
 C          8.3131639517       -2.6503266389        0.9159045906
 C          9.0892139964       -3.7889545591        0.8219278769
 H          9.2936194972       -5.7401910531       -0.0392419170
 H          7.1789976223       -5.5798309887       -1.3057381111
 H          5.8010246365       -3.5517308738       -1.1623098635
 H          5.4882608613        0.5563046174        1.8397005350
 H          6.5259724845        2.7834213151        2.0774962912
 H          8.5691535601        3.3358769482        0.8097406184
 H          9.5721225368        1.6509804645       -0.6909314454
 H          8.5300758079       -0.5642000071       -0.9377266348
 H          4.8136871404       -3.2716593699        1.3988043553
 H          2.3732217850       -3.4549412564        1.2147681027
 H          0.6771972762       -1.4135107569       -2.2264779129
 H         -1.7796387892       -1.5063859480       -2.4245214340
 H         -5.8931305215       -3.9180098131       -2.7854032684
 H         -8.0514818898       -4.7265789124       -3.7310062457
 H        -10.1593253047       -3.6785442833       -2.9879102942
 H        -10.1503009058       -1.8711327958       -1.3835531343
 H        -10.0715217706       -0.2948484770       -0.2237830618
 H         -9.9766390904        1.6071178017        1.2721952406
 H         -7.8061925023        2.4020799757        2.1529627123
 H         -5.7452438690        1.2237374570        1.5549534340
 H         -4.8601913499       -0.7254757840        2.9296870966
 H         -3.5309650662        0.4518558379        4.6445525018
 H         -1.4493948434        1.6134741290        4.0194081971
 H          0.6634127006        0.4806360608        2.8706543903
 H          2.9101061264        1.1447665192        2.1327043783
 H          4.3579107103        2.4529850512        0.6334617777
 H          4.6167467059        4.1237897046       -1.1426596139
 H          3.6092370862        5.7137815883       -2.7262171426
 H          1.6179769015        6.7806026359       -3.7023301996
 H         -0.6335634225        6.1615878684       -2.9239504981
 H         -2.0857418024        4.8501322674       -1.4309857791
 H         -2.3513134386        3.1639124147        0.3202952651
 H         -2.1738295774        0.6820833326       -0.0817756659
 H         -2.0752516615       -2.3727486983        1.7452897687
 H          0.3677740324       -2.3004321718        1.9385823671
 H          2.2845225691        0.0961694705       -1.1576474157
 H          4.7220943421        0.2779765640       -0.9798553007
 H          8.6256510545       -1.8291463503        1.5444008004
 H         10.0114721854       -3.8511242298        1.3808134989
