  32
  -50.2564464388000        1.00000000000000      !
 C         -5.3643705194        0.5841253809        0.0025406431
 C         -4.6242079686        1.7840200740        0.0019866157
 C         -3.2516931365        1.7895154769        0.0000553404
 C         -2.5721562018        0.5637750388       -0.0009540093
 C         -3.3435385455       -0.6505444623       -0.0000068856
 C         -4.7281765316       -0.6424577515        0.0013209487
 N         -2.4678070560       -1.6942060130       -0.0003887580
 C         -1.1811875190       -1.2231465801       -0.0013341039
 C          0.0068414950       -1.9817382897       -0.0012151632
 C          1.1837219837       -1.2318512059       -0.0007267905
 N          2.4767739354       -1.7005589356        0.0006562900
 C          3.3476525929       -0.6547444773        0.0007967306
 C          4.7295619671       -0.6388985482        0.0026686828
 C          5.3608049794        0.5932912592        0.0024440857
 C          4.6134738733        1.7930272849        0.0003324581
 C          3.2453806934        1.7956841791       -0.0013881060
 C          2.5655248400        0.5605557778       -0.0008920254
 C          1.2103204722        0.1803561941       -0.0018030131
 C         -0.0031204334        0.9315829306       -0.0030057571
 C         -1.2047512291        0.1847990033       -0.0019175949
 H         -6.4423174566        0.6304358603        0.0038440114
 H         -5.1637098232        2.7200490315        0.0034162958
 H         -2.6977729161        2.7157056624       -0.0002349642
 H         -5.2906187470       -1.5652290121        0.0013334320
 H         -2.7248402769       -2.6681248124       -0.0003444880
 H          0.0020498753       -3.0600460066       -0.0005920637
 H          2.7364654635       -2.6734290333        0.0013119958
 H          5.2980223992       -1.5578357255        0.0051882319
 H          6.4381688821        0.6447394950        0.0041899075
 H          5.1518901383        2.7297220299       -0.0004943549
 H          2.6861320045        2.7182090693       -0.0038394350
 H          0.0001216761        2.0059644370       -0.0044130670
