  55
  -88.7730242571000       0.379642603978807      !
 N         -3.5009691656       -5.3971090501       -0.0017664701
 C         -3.4257241803       -4.2523948497        0.0000260871
 C         -3.3301082451       -2.8434709370        0.0029902440
 C         -4.4976655832       -2.0741677338       -0.0012569851
 C         -4.4267517915       -0.6939657382       -0.0003394484
 C         -3.1773058036       -0.0902227688        0.0041863644
 C         -2.0059715041       -0.8671448127        0.0088522421
 C         -2.0674333542       -2.2397669491        0.0086818007
 C         -0.7735923595        0.0099419333        0.0074375951
 C         -1.3960794181        1.3919495028        0.0043289619
 C         -0.7548587839        2.6067561411        0.0010520878
 C         -1.5390380117        3.7656799397       -0.0052128457
 C         -0.9079559652        5.0288861175       -0.0099877441
 N         -0.3910268518        6.0531991078       -0.0126675404
 C         -2.9353256976        3.6911984145       -0.0077053739
 C         -3.5714272914        2.4643230120       -0.0038751204
 C         -2.7983120448        1.3119054936        0.0019622114
 C          0.0451502440       -0.1869336131        1.2625985644
 C         -0.5984019245       -0.1701996188        2.4908436056
 C          0.1067372518       -0.3061162398        3.6719593280
 C          1.4823021232       -0.4572614427        3.6238986066
 C          2.1388988042       -0.4766578520        2.4110041211
 C          1.4329604462       -0.3425236661        1.2117075109
 N          2.1019798288       -0.3674476155        0.0009495838
 C          3.5229648221       -0.4797646577       -0.0023354182
 C          4.1246353290       -1.7314210137       -0.0301821995
 C          5.5048401124       -1.8294393497       -0.0350019909
 C          6.2831052669       -0.6837270245       -0.0114651916
 C          5.6819645315        0.5636476085        0.0170511932
 C          4.3021222453        0.6691731270        0.0214588430
 C          1.4277004586       -0.3432301463       -1.2068995935
 C          2.1284719888       -0.4718112197       -2.4098238672
 C          1.4656303275       -0.4566104271       -3.6194037478
 C          0.0889406761       -0.3138869619       -3.6607602568
 C         -0.6105688039       -0.1784786723       -2.4763149065
 C          0.0393193333       -0.1908410099       -1.2513321192
 H         -5.4557553549       -2.5727792701       -0.0057095475
 H         -5.3287796157       -0.1010428086       -0.0042776945
 H         -1.1726931468       -2.8443011663        0.0120475628
 H          0.3227237820        2.6763014989        0.0028740413
 H         -3.5101851255        4.6055302108       -0.0133542982
 H         -4.6494261174        2.4090201191       -0.0066393831
 H         -1.6715873322       -0.0440402111        2.5174722850
 H         -0.4113736377       -0.2901894116        4.6178486046
 H          2.0500085607       -0.5618281527        4.5360327989
 H          3.2111696531       -0.5959396192        2.3846768011
 H          3.5065496340       -2.6171609113       -0.0485479614
 H          5.9723421964       -2.8022882977       -0.0577285656
 H          7.3595668361       -0.7631506167       -0.0164587154
 H          6.2872769215        1.4573519387        0.0348029648
 H          3.8219089901        1.6364630119        0.0437449405
 H          3.2017552916       -0.5826374163       -2.3894720994
 H          2.0294939474       -0.5570565576       -4.5343935721
 H         -0.4341733181       -0.3026660879       -4.6039780353
 H         -1.6843325033       -0.0565717075       -2.4977445137
  55
  -88.7725860872000       0.238784427144883      !
 N         -3.9379692098       -5.3213011344        0.0149986075
 C         -3.7667205814       -4.1874035055        0.0173109912
 C         -3.5604433854       -2.7903158172        0.0171519891
 C         -4.6652095402       -1.9332007827        0.0313439772
 C         -4.4879920673       -0.5625403309        0.0301836148
 C         -3.1958138540       -0.0567502764        0.0151082550
 C         -2.0875365230       -0.9216705756        0.0030593300
 C         -2.2550740747       -2.2858502121        0.0036518935
 C         -0.7931401311       -0.1430505030       -0.0059968569
 C         -1.3069317844        1.2842105225       -0.0078673828
 C         -0.5738654850        2.4457218265       -0.0203778572
 C         -1.2658957602        3.6618773348       -0.0151697450
 C         -0.5372765135        4.8713848941       -0.0251914407
 N          0.0577587453        5.8525432297       -0.0287262688
 C         -2.6636034091        3.6952866400        0.0013811431
 C         -3.3922736474        2.5209895753        0.0127579702
 C         -2.7107204605        1.3121515256        0.0079729515
 C          0.0177308424       -0.3814360584        1.2478720644
 C         -0.6284529298       -0.4894914088        2.4695003784
 C          0.0837560447       -0.6358121959        3.6456036692
 C          1.4670912663       -0.6678869499        3.5996249957
 C          2.1266467990       -0.5624176629        2.3924732565
 C          1.4141961433       -0.4175159361        1.1990407999
 N          2.0831758667       -0.3242196883       -0.0094092657
 C          3.5048707269       -0.2313587641       -0.0034116454
 C          4.2902696740       -1.3721521309       -0.1142265752
 C          5.6692425060       -1.2593866066       -0.1044272463
 C          6.2647735622       -0.0144388759        0.0179059130
 C          5.4811584469        1.1216051658        0.1306510687
 C          4.1013818553        1.0161757476        0.1197035267
 C          1.4121288889       -0.4205372912       -1.2165567492
 C          2.1195552109       -0.5459125747       -2.4150848582
 C          1.4546997436       -0.6582161264       -3.6188691268
 C          0.0707620889       -0.6475069345       -3.6574444008
 C         -0.6365774804       -0.5061025096       -2.4778594686
 C          0.0147100884       -0.3912433919       -1.2594476263
 H         -5.6587668507       -2.3565704812        0.0432826183
 H         -5.3415628211        0.0980910841        0.0406327324
 H         -1.4094642127       -2.9573109043       -0.0061626748
 H          0.5055522734        2.4321615847       -0.0347250784
 H         -3.1662357686        4.6512569846        0.0052400217
 H         -4.4712813133        2.5493263680        0.0253376806
 H         -1.7081327459       -0.4499677696        2.4981086680
 H         -0.4365464634       -0.7147071004        4.5875372750
 H          2.0385857614       -0.7737627769        4.5091102829
 H          3.2050113655       -0.5909615522        2.3669768504
 H          3.8145362458       -2.3376770230       -0.2072395738
 H          6.2796433883       -2.1463655565       -0.1877675168
 H          7.3407698241        0.0692403088        0.0298543160
 H          5.9427024303        2.0924431084        0.2277946496
 H          3.4814169716        1.8966916020        0.2066390040
 H          3.1982429913       -0.5495387863       -2.3978890057
 H          2.0230082424       -0.7527575914       -4.5316812861
 H         -0.4531909124       -0.7376004835       -4.5959449037
 H         -1.7164231515       -0.4781352007       -2.5002782860
  55
  -88.7718896333000       0.114271505285243      !
 N         -1.9804201006       -5.4036229456        0.0184075176
 C         -2.2004270473       -4.2776435463        0.0165257226
 C         -2.4550410390       -2.8888037173        0.0140776164
 C         -3.7731229935       -2.4226663796        0.0178903214
 C         -4.0360205146       -1.0658715048        0.0146466297
 C         -2.9689309259       -0.1785868001        0.0071486338
 C         -1.6473524745       -0.6521252534        0.0036194956
 C         -1.3757132131       -1.9984842888        0.0074258381
 C         -0.6591709550        0.4994067154       -0.0013070236
 C         -1.5908984421        1.6870117312       -0.0037514767
 C         -1.2628741906        3.0219798428       -0.0109215008
 C         -2.3037372412        3.9576347233       -0.0119064685
 C         -1.9985918628        5.3365701968       -0.0199622126
 N         -1.7516923889        6.4568057355       -0.0265968285
 C         -3.6411067275        3.5494768542       -0.0052117940
 C         -3.9625741269        2.2053775156        0.0017928316
 C         -2.9345926597        1.2731688243        0.0020662286
 C          0.1860469887        0.4294020159        1.2509333716
 C         -0.3426161452        0.8388479640        2.4645962668
 C          0.3688889761        0.6899301960        3.6412253637
 C          1.6227748770        0.1047578618        3.6049235739
 C          2.1663074490       -0.3053946927        2.4048000404
 C          1.4627750599       -0.1401553690        1.2093473400
 N          2.0178711776       -0.5329897784        0.0031295009
 C          3.2596481023       -1.2314391356       -0.0010459169
 C          3.2560074949       -2.6161838418       -0.0963271733
 C          4.4539674923       -3.3092185413       -0.1035433908
 C          5.6531386153       -2.6226078170       -0.0149010886
 C          5.6567880287       -1.2404144958        0.0796189213
 C          4.4627574910       -0.5415432605        0.0857899618
 C          1.4668567869       -0.1367717986       -1.2039095960
 C          2.1846048573       -0.2830409663       -2.3933683368
 C          1.6466482998        0.1275627585       -3.5958688408
 C          0.3857155079        0.6969800024       -3.6394829987
 C         -0.3353350984        0.8362493457       -2.4674671593
 C          0.1880065596        0.4265075698       -1.2514717723
 H         -4.5829540225       -3.1372407436        0.0237153729
 H         -5.0544639745       -0.7082146346        0.0182687558
 H         -0.3623714630       -2.3701664718        0.0056432493
 H         -0.2338914042        3.3492301978       -0.0160888188
 H         -4.4193585709        4.2983675327       -0.0057228409
 H         -4.9951990533        1.8912484964        0.0067726160
 H         -1.3326692326        1.2710955120        2.4887764789
 H         -0.0589533811        1.0139997019        4.5768267693
 H          2.1843550266       -0.0343602799        4.5162806933
 H          3.1439189346       -0.7618585140        2.3884217989
 H          2.3160743106       -3.1441014173       -0.1660004788
 H          4.4486770751       -4.3861548586       -0.1771979626
 H          6.5862766449       -3.1652375776       -0.0196090702
 H          6.5912992333       -0.7040825278        0.1475607558
 H          4.4526198159        0.5364109216        0.1572026412
 H          3.1701988199       -0.7219859705       -2.3691733549
 H          2.2187172993        0.0031532409       -4.5027924106
 H         -0.0382950475        1.0206430265       -4.5769898324
 H         -1.3279450673        1.2622134019       -2.4968565735
  55
  -88.7715968679000       8.382861408605732E-002 !
 N         -4.1701830740       -5.2657055159        0.0216317155
 C         -3.9500336756       -4.1399407685        0.0176702872
 C         -3.6831240087       -2.7530459028        0.0144538211
 C         -4.7493811317       -1.8481846449        0.0175165958
 C         -4.5118516600       -0.4867829589        0.0139728922
 C         -3.1985637808       -0.0382580242        0.0073198123
 C         -2.1288417400       -0.9506886073        0.0044684515
 C         -2.3568304380       -2.3065316721        0.0080781398
 C         -0.8031357364       -0.2297664466       -0.0012194738
 C         -1.2538645310        1.2194077129       -0.0040808840
 C         -0.4715710997        2.3482620364       -0.0114326904
 C         -1.1101650153        3.5933065097       -0.0112419250
 C         -0.3255114629        4.7671426962       -0.0173212288
 N          0.3235885516        5.7131917951       -0.0205483589
 C         -2.5050110133        3.6874767638       -0.0043379822
 C         -3.2835882693        2.5455395584        0.0019843633
 C         -2.6549900528        1.3082701594        0.0021711237
 C          0.0074211820       -0.4948375841        1.2477122693
 C         -0.6292153724       -0.6999386918        2.4611926876
 C          0.0937599262       -0.8497964570        3.6308634463
 C          1.4755219989       -0.7795012647        3.5878993060
 C          2.1261886279       -0.5796622213        2.3874796524
 C          1.4040053760       -0.4402782316        1.2001142248
 N          2.0600871383       -0.2627135562       -0.0068004411
 C          3.4718586805       -0.0709943732       -0.0036476962
 C          4.3367359376       -1.1558107811       -0.0839119990
 C          5.7040761715       -0.9456965771       -0.0782725437
 C          6.2098108896        0.3412679517        0.0089636850
 C          5.3475348393        1.4213846914        0.0909982062
 C          3.9784641747        1.2182222542        0.0845391828
 C          1.4002457593       -0.4411918317       -1.2115586372
 C          2.1150158278       -0.5651533314       -2.4050447920
 C          1.4581895251       -0.7679282745       -3.6016804607
 C          0.0770928931       -0.8533367542       -3.6357098629
 C         -0.6394400639       -0.7090073475       -2.4614058645
 C          0.0032239090       -0.5008492043       -1.2516358170
 H         -5.7606353659       -2.2274470167        0.0229057877
 H         -5.3354222207        0.2109455473        0.0166734537
 H         -1.5415709133       -3.0145765340        0.0056789967
 H          0.6060088896        2.2890784331       -0.0181588632
 H         -2.9659417587        4.6642225619       -0.0043244874
 H         -4.3604025247        2.6204369205        0.0066508480
 H         -1.7087904676       -0.7329303516        2.4912786997
 H         -0.4186872914       -1.0088667337        4.5666248259
 H          2.0534972485       -0.8842409088        4.4935432099
 H          3.2039994688       -0.5307213661        2.3632005977
 H          3.9303910101       -2.1546588811       -0.1502510189
 H          6.3756465646       -1.7887017310       -0.1413133227
 H          7.2771872310        0.5018657859        0.0133306558
 H          5.7386291482        2.4251753861        0.1598048747
 H          3.2996535254        2.0559590590        0.1505747448
 H          3.1919692579       -0.4992984449       -2.3900215247
 H          2.0311023928       -0.8612519735       -4.5117977906
 H         -0.4399668141       -1.0156594779       -4.5683678014
 H         -1.7190148627       -0.7473403635       -2.4849299900
  55
  -88.7714930166000       7.510442632698984E-002 !
 N         -4.0396038779       -5.2978884762        0.0361357071
 C         -3.8515250967       -4.1662307246        0.0273759151
 C         -3.6180665110       -2.7733687580        0.0174441748
 C         -4.7055706682       -1.8943770321        0.0139587901
 C         -4.5009182609       -0.5276578857        0.0058409850
 C         -3.1988191855       -0.0477432530        0.0013579474
 C         -2.1078411963       -0.9344630934        0.0043719586
 C         -2.3028407835       -2.2951355895        0.0126699897
 C         -0.7988041665       -0.1822528595       -0.0008939057
 C         -1.2837760634        1.2554441751       -0.0060421278
 C         -0.5281836990        2.4023913712       -0.0099200358
 C         -1.1962442225        3.6319404971       -0.0116790195
 C         -0.4409278163        4.8247998470       -0.0097517207
 N          0.1856956882        5.7857457929       -0.0155496320
 C         -2.5929128778        3.6929828140       -0.0110093749
 C         -3.3444424794        2.5331376747       -0.0082852331
 C         -2.6867739521        1.3111669186       -0.0050323224
 C          0.0125248891       -0.4332052223        1.2500860132
 C         -0.6293806101       -0.5924836619        2.4680562363
 C          0.0884523491       -0.7424198098        3.6405234516
 C          1.4719090383       -0.7219916603        3.5952930291
 C          2.1274755987       -0.5665435996        2.3912230378
 C          1.4097581330       -0.4226794809        1.2012392915
 N          2.0728054206       -0.2853277377       -0.0066607690
 C          3.4912478805       -0.1523648840       -0.0033005801
 C          4.3083523610       -1.2709982956       -0.1102887456
 C          5.6833458071       -1.1196218310       -0.1064686382
 C          6.2439341883        0.1420930749        0.0063479716
 C          5.4290624411        1.2558577980        0.1161061071
 C          4.0527096761        1.1117171282        0.1110199673
 C          1.4060256673       -0.4241759639       -1.2124240989
 C          2.1162616845       -0.5477847861       -2.4091329025
 C          1.4541873177       -0.7078901731       -3.6090512077
 C          0.0710400800       -0.7487384283       -3.6445683111
 C         -0.6401297577       -0.6055497623       -2.4672159688
 C          0.0081563830       -0.4415092824       -1.2533116656
 H         -5.7074327455       -2.2977693569        0.0178463983
 H         -5.3411264144        0.1499208293        0.0035125191
 H         -1.4707656731       -2.9832776918        0.0156666368
 H          0.5507181572        2.3683646072       -0.0116191237
 H         -3.0768170046        4.6585333139       -0.0127489824
 H         -4.4227120331        2.5825788181       -0.0078599019
 H         -1.7095696567       -0.5905272147        2.4977731812
 H         -0.4282625856       -0.8649484275        4.5793992096
 H          2.0470386946       -0.8302802509        4.5023119473
 H          3.2063344198       -0.5563965393        2.3655622782
 H          3.8594190588       -2.2497505236       -0.1962891719
 H          6.3179002336       -1.9888723494       -0.1904113123
 H          7.3171497400        0.2567582247        0.0094889653
 H          5.8633593485        2.2398482760        0.2049260305
 H          3.4096120863        1.9747672678        0.1977902534
 H          3.1946349371       -0.5147667521       -2.3939195127
 H          2.0244180771       -0.8017683342       -4.5207868784
 H         -0.4505885106       -0.8768048779       -4.5799163551
 H         -1.7204412746       -0.6114004126       -2.4900022590
  55
  -88.7712384738000       5.737012045545637E-002 !
 N         -4.2536444601       -5.2402535685        0.0347459674
 C         -4.0159099142       -4.1180480420        0.0315444615
 C         -3.7256332188       -2.7358572710        0.0250494683
 C         -4.7766966304       -1.8133975734        0.0307288408
 C         -4.5164344097       -0.4562177610        0.0246872166
 C         -3.1958962094       -0.0296760458        0.0125647604
 C         -2.1413385805       -0.9595917615        0.0071468833
 C         -2.3921098433       -2.3115482199        0.0136187943
 C         -0.8043821553       -0.2606103785       -0.0035043926
 C         -1.2312564029        1.1959902404       -0.0100254448
 C         -0.4310390245        2.3121305260       -0.0254694191
 C         -1.0492381233        3.5673962008       -0.0246836371
 C         -0.2444884070        4.7274633702       -0.0376903912
 N          0.4219089611        5.6615767840       -0.0432099422
 C         -2.4422588735        3.6843499178       -0.0105003973
 C         -3.2390645430        2.5551003183        0.0022823269
 C         -2.6306308853        1.3077638277        0.0026642454
 C          0.0059251063       -0.5329431609        1.2440051490
 C         -0.6259485405       -0.7601138693        2.4558747431
 C          0.1018321059       -0.9180498496        3.6216373943
 C          1.4829052984       -0.8366220386        3.5760905161
 C          2.1287143919       -0.6152964479        2.3767672568
 C          1.4016331266       -0.4628006976        1.1941919178
 N          2.0535033451       -0.2656999767       -0.0125950461
 C          3.4563232798       -0.0220335635       -0.0025879288
 C          4.3631534428       -1.0594696349       -0.1840622012
 C          5.7210717295       -0.7952136558       -0.1703551042
 C          6.1767074458        0.4980035475        0.0282904689
 C          5.2731407970        1.5303331136        0.2152807577
 C          3.9134533150        1.2732757075        0.1996885400
 C          1.3963560598       -0.4639916739       -1.2165265724
 C          2.1084353436       -0.5814476399       -2.4120437599
 C          1.4512688935       -0.8092187482       -3.6041376159
 C          0.0723638996       -0.9246949066       -3.6320927670
 C         -0.6430154466       -0.7792677013       -2.4571604228
 C         -0.0001839816       -0.5456306403       -1.2523220410
 H         -5.7941089306       -2.1757447132        0.0403546320
 H         -5.3281684587        0.2552298809        0.0295261190
 H         -1.5888091532       -3.0331478908        0.0089365935
 H          0.6452279192        2.2360239096       -0.0404612298
 H         -2.8872982348        4.6684333456       -0.0104096524
 H         -4.3144857436        2.6474285542        0.0117612499
 H         -1.7049805875       -0.8043101204        2.4885129031
 H         -0.4066886208       -1.0936387605        4.5565888628
 H          2.0641127312       -0.9503683921        4.4785706224
 H          3.2062393067       -0.5612023858        2.3491340716
 H          3.9969959313       -2.0649094636       -0.3335540695
 H          6.4247058864       -1.6016554785       -0.3127647470
 H          7.2368310088        0.7007036633        0.0385409701
 H          5.6244550812        2.5389762279        0.3717822350
 H          3.2036027974        2.0740513217        0.3480417996
 H          3.1833461259       -0.4890440040       -2.4040943454
 H          2.0226440686       -0.8978413709       -4.5156956420
 H         -0.4444929733       -1.1081853538       -4.5609336149
 H         -1.7217854950       -0.8359194007       -2.4770230673
  55
  -88.7711272171000       5.099830272256368E-002 !
 N         -3.0242645734       -5.4364756324        0.0059247887
 C         -3.0426997517       -4.2893763850        0.0091180285
 C         -3.0615883308       -2.8773338683        0.0090038220
 C         -4.2874007907       -2.2047481331        0.0154381385
 C         -4.3282855518       -0.8234183456        0.0145765849
 C         -3.1317828935       -0.1205623693        0.0079546611
 C         -1.9023446630       -0.8005480625        0.0033519872
 C         -1.8520722473       -2.1734157760        0.0033829441
 C         -0.7431595569        0.1741538013       -0.0010049611
 C         -1.4743506619        1.5000046789       -0.0022624076
 C         -0.9341185117        2.7631592122       -0.0073180779
 C         -1.8099281289        3.8547182763       -0.0063222081
 C         -1.2853459912        5.1658391738       -0.0112426220
 N         -0.8590194536        6.2309318014       -0.0149072676
 C         -3.1956097578        3.6677045366       -0.0001399172
 C         -3.7302376047        2.3933548714        0.0050882399
 C         -2.8661816381        1.3074652205        0.0040274131
 C          0.0816818617        0.0206225021        1.2564433811
 C         -0.5464251727        0.1619731258        2.4848348283
 C          0.1533359187        0.0238355393        3.6686710830
 C          1.5069926737       -0.2642787276        3.6228047665
 C          2.1478159903       -0.4086297800        2.4100022156
 C          1.4481721438       -0.2666516154        1.2076985641
 N          2.1027287093       -0.4119067696       -0.0024072802
 C          3.4920326099       -0.7309757656       -0.0027119132
 C          3.8948453803       -2.0587503096       -0.0601358918
 C          5.2434712552       -2.3679614122       -0.0596469556
 C          6.1878895535       -1.3565688056       -0.0008835171
 C          5.7849997950       -0.0325656015        0.0565693807
 C          4.4380022798        0.2840540485        0.0553232002
 C          1.4464477942       -0.2686110420       -1.2117304964
 C          2.1468863802       -0.4015421253       -2.4145773206
 C          1.5038449894       -0.2617044304       -3.6267852890
 C          0.1477088168        0.0153240629       -3.6714441958
 C         -0.5511356917        0.1522888241       -2.4869604401
 C          0.0791830437        0.0152965019       -1.2591529641
 H         -5.2019991627       -2.7792230158        0.0202943774
 H         -5.2755106866       -0.3057016822        0.0186731614
 H         -0.9113226631       -2.7036340169        0.0007857249
 H          0.1343131165        2.9197519806       -0.0124153954
 H         -3.8426342492        4.5325206986        0.0005471906
 H         -4.8002393337        2.2505703044        0.0100809835
 H         -1.6041649762        0.3835744777        2.5083613163
 H         -0.3524317249        0.1374717743        4.6145528725
 H          2.0698872339       -0.3782175586        4.5368532521
 H          3.2027633562       -0.6347937879        2.3863253698
 H          3.1487020746       -2.8384738251       -0.1053825212
 H          5.5561073402       -3.4003293113       -0.1041154710
 H          7.2392882631       -1.6005572495       -0.0001352024
 H          6.5203526531        0.7565310667        0.1014215855
 H          4.1113566132        1.3127458142        0.0989684241
 H          3.2044747336       -0.6154751080       -2.3915286015
 H          2.0669045112       -0.3700023676       -4.5413991647
 H         -0.3599515401        0.1243371922       -4.6169066702
 H         -1.6098025016        0.3696044773       -2.5093416884
