  55
        -89.08496799
 N         -1.6760754232       -5.9910127949        0.0039347231
 C         -1.9609566131       -4.8796982346        0.0069993130
 C         -2.3079327950       -3.5108197458        0.0067299226
 C         -3.6566170280       -3.1419682276        0.0120736698
 C         -4.0178374691       -1.8080780464        0.0110415869
 C         -3.0177468259       -0.8460721757        0.0053499550
 C         -1.6638158053       -1.2212768841        0.0018416097
 C         -1.2954340303       -2.5447525733        0.0020501042
 C         -0.7632831809       -0.0035734448       -0.0016430640
 C         -1.7829457934        1.1157150446       -0.0036423137
 C         -1.5514994941        2.4699107314       -0.0083713217
 C         -2.6572881872        3.3276845999       -0.0082149546
 C         -2.4522249172        4.7248876726       -0.0128265173
 N         -2.2854656432        5.8599514345       -0.0162401158
 C         -3.9614086204        2.8233331353       -0.0031719406
 C         -4.1847993340        1.4595538844        0.0017353418
 C         -3.0917608994        0.6045585045        0.0015036378
 C          0.0735902052        0.0389413975        1.2565091457
 C         -0.5711926673        0.0301190818        2.4843614199
 C          0.1405137068        0.0585039209        3.6687955437
 C          1.5240920591        0.0933234332        3.6240886679
 C          2.1819273030        0.1021854593        2.4118362052
 C          1.4694566171        0.0775648557        1.2089344099
 N          2.1408561983        0.0887432977       -0.0006097837
 C          3.5662685964        0.1017491713        0.0002778470
 C          4.2670654851       -1.0958236152       -0.0566784779
 C          5.6506219453       -1.0826970478       -0.0550322379
 C          6.3336930708        0.1207036712        0.0044203929
 C          5.6336989386        1.3145907426        0.0614059449
 C          4.2500026678        1.3090483388        0.0590030901
 C          1.4702571230        0.0754960650       -1.2104950416
 C          2.1834049083        0.1093370260       -2.4127430999
 C          1.5264890079        0.0958080491       -3.6255017060
 C          0.1431547976        0.0496390357       -3.6713209985
 C         -0.5693660394        0.0200937822       -2.4874350686
 C          0.0745013165        0.0334276971       -1.2590878711
 H         -4.4124182982       -3.9135136789        0.0162224742
 H         -5.0595406131       -1.5250113538        0.0142956440
 H         -0.2571205682       -2.8414847245        0.0002912278
 H         -0.5488401185        2.8708468723       -0.0125914219
 H         -4.7919264944        3.5138316623       -0.0031108003
 H         -5.1921990178        1.0716814548        0.0058481931
 H         -1.6514813714       -0.0005200952        2.5069822802
 H         -0.3786030520        0.0512263904        4.6142432108
 H          2.0972836463        0.1134180229        4.5386183771
 H          3.2605621715        0.1277374174        2.3890631045
 H          3.7229009112       -2.0277752045       -0.1024715168
 H          6.1949610538       -2.0139606521       -0.0991376106
 H          7.4130043557        0.1280923357        0.0060712388
 H          6.1651883635        2.2531470582        0.1067946186
 H          3.6928948095        2.2334765530        0.1022738294
 H          3.2617228453        0.1473942042       -2.3887896533
 H          2.1000562088        0.1216070283       -4.5396341300
 H         -0.3751465469        0.0376110120       -4.6172180509
 H         -1.6495205856       -0.0149246393       -2.5107222797
  55
        -89.08490619
 N         -2.1488465263       -6.0636635485       -0.0041587062
 C         -2.3420634110       -4.9328674479       -0.0024162932
 C         -2.5769557187       -3.5403750960        0.0004886552
 C         -3.8914831489       -3.0639035285       -0.0048100156
 C         -4.1437135930       -1.7050929262       -0.0039694898
 C         -3.0690772575       -0.8271591486        0.0015406300
 C         -1.7491038817       -1.3101614557        0.0072618571
 C         -1.4894455935       -2.6594007537        0.0071755751
 C         -0.7546725852       -0.1703598539        0.0067902743
 C         -1.6816827849        1.0288409788        0.0030251167
 C         -1.3407708366        2.3595177487        0.0001640533
 C         -2.3731157840        3.3041314828       -0.0068704736
 C         -2.0533262039        4.6795196839       -0.0112428098
 N         -1.7889626338        5.7960080970       -0.0135918349
 C         -3.7137319872        2.9067552474       -0.0105222466
 C         -4.0468572985        1.5655323007       -0.0071023355
 C         -3.0267863258        0.6246714791       -0.0005052965
 C          0.0863582885       -0.1714182933        1.2626542954
 C         -0.5444451280       -0.3050301564        2.4903595619
 C          0.1719770877       -0.2732334900        3.6720774285
 C          1.5449888538       -0.1001068618        3.6251809307
 C          2.1890853977        0.0339498532        2.4128373760
 C          1.4723159363        0.0002354956        1.2129381363
 N          2.1297786732        0.1318071955        0.0027420642
 C          3.5378901277        0.3532615651        0.0006553852
 C          4.4143462329       -0.7240082318       -0.0265651219
 C          5.7794708637       -0.4981378314       -0.0302220732
 C          6.2697216743        0.7972315957       -0.0061481508
 C          5.3947766655        1.8704604475        0.0217428249
 C          4.0282578746        1.6519755158        0.0249871965
 C          1.4693856094       -0.0014376330       -1.2056724371
 C          2.1818449411        0.0367113956       -2.4079980962
 C          1.5346753341       -0.1026406324       -3.6181328539
 C          0.1626042626       -0.2842107300       -3.6606536631
 C         -0.5502010390       -0.3154244678       -2.4768065404
 C          0.0836972677       -0.1763279373       -1.2512799845
 H         -4.7072286375       -3.7717887721       -0.0100138358
 H         -5.1589554209       -1.3383658203       -0.0087199148
 H         -0.4785886723       -3.0391162494        0.0113485738
 H         -0.3089601391        2.6779253077        0.0028794609
 H         -4.4855839877        3.6622045927       -0.0167417306
 H         -5.0823865037        1.2608793944       -0.0107618059
 H         -1.6175469928       -0.4320856305        2.5160791301
 H         -0.3364053886       -0.3784102497        4.6175319162
 H          2.1206807516       -0.0697774735        4.5377994423
 H          3.2596970181        0.1674812756        2.3874177240
 H          4.0193726921       -1.7292669320       -0.0453598443
 H          6.4605547536       -1.3354787966       -0.0524619982
 H          7.3351154550        0.9705000189       -0.0102344478
 H          5.7754746575        2.8804924079        0.0399120988
 H          3.3361058662        2.4809519825        0.0467765731
 H          3.2514344605        0.1786972576       -2.3867386659
 H          2.1071976211       -0.0690182575       -4.5326413297
 H         -0.3479703813       -0.3949426179       -4.6043092775
 H         -1.6228355479       -0.4467454801       -2.4991453051
  55
        -89.08466181
 N         -2.5884927804       -6.0929195574        0.0104216854
 C         -2.6863876507       -4.9503509077        0.0133793562
 C         -2.8115938731       -3.5436784810        0.0140130880
 C         -4.0857827026       -2.9678306581        0.0280830352
 C         -4.2330843457       -1.5936328837        0.0276879815
 C         -3.0944752193       -0.8004472987        0.0135011733
 C         -1.8150526387       -1.3830676742        0.0015721640
 C         -1.6598490523       -2.7487056506        0.0014074063
 C         -0.7379117621       -0.3240604616       -0.0064594712
 C         -1.5703698782        0.9440368806       -0.0078781212
 C         -1.1283706757        2.2444806393       -0.0194520628
 C         -2.0849267502        3.2657239153       -0.0139845271
 C         -1.6584454727        4.6118021254       -0.0230481553
 N         -1.3086172777        5.7046716391       -0.0258038311
 C         -3.4518958919        2.9722616895        0.0018922846
 C         -3.8866382230        1.6604105025        0.0123284291
 C         -2.9419769403        0.6438394660        0.0072824284
 C          0.1057359731       -0.3675286850        1.2476919124
 C         -0.4978801237       -0.6240208508        2.4689472257
 C          0.2283849645       -0.6009238641        3.6453297730
 C          1.5810774666       -0.3094979409        3.6000187417
 C          2.1982944332       -0.0524109201        2.3932453277
 C          1.4721315752       -0.0769338728        1.1995327978
 N          2.1013520902        0.1705141884       -0.0085403050
 C          3.4621930626        0.5923455976       -0.0017943255
 C          4.4920079451       -0.3337771165       -0.1127852565
 C          5.8066616805        0.0974452178       -0.1022488356
 C          6.0954112115        1.4468719011        0.0209941255
 C          5.0684378020        2.3687910645        0.1339138149
 C          3.7512921302        1.9445158263        0.1222324115
 C          1.4717079627       -0.0789141755       -1.2160666765
 C          2.1893049524       -0.0351490518       -2.4143069551
 C          1.5694082756       -0.2986807890       -3.6184749579
 C          0.2211432051       -0.6109733006       -3.6577287156
 C         -0.5001004502       -0.6391196936       -2.4784236405
 C          0.1060011107       -0.3762755542       -1.2596335077
 H         -4.9532230664       -3.6112290384        0.0393214250
 H         -5.2171826471       -1.1502713953        0.0380420173
 H         -0.6809670364       -3.2044546775       -0.0083213685
 H         -0.0755455564        2.4830192721       -0.0332726571
 H         -4.1636010172        3.7846609888        0.0059755134
 H         -4.9425097546        1.4363377086        0.0243890221
 H         -1.5570198632       -0.8373815228        2.4970415934
 H         -0.2595184654       -0.7995377682        4.5869670619
 H          2.1611733679       -0.2797262913        4.5097338237
 H          3.2535936068        0.1713182175        2.3682676220
 H          4.2545819571       -1.3835658905       -0.2065107078
 H          6.6071045511       -0.6226861984       -0.1857260756
 H          7.1222236461        1.7791554610        0.0335155403
 H          5.2908250608        3.4204350140        0.2317654637
 H          2.9430548025        2.6561299033        0.2092969362
 H          3.2390921177        0.2128606948       -2.3965799319
 H          2.1444283114       -0.2575440462       -4.5310528468
 H         -0.2670119277       -0.8202075369       -4.5965324171
 H         -1.5566879403       -0.8637263433       -2.5013621635
  55
        -89.08457916
 N         -2.6915926652       -6.0943922371        0.0322454794
 C         -2.7728203786       -4.9500873219        0.0240024048
 C         -2.8708830832       -3.5412000586        0.0147075649
 C         -4.1334993192       -2.9402917879        0.0110490444
 C         -4.2534719121       -1.5635492574        0.0035448108
 C         -3.0993369763       -0.7929916320       -0.0001498518
 C         -1.8315390203       -1.4006036183        0.0030359826
 C         -1.7035914667       -2.7692137184        0.0107272303
 C         -0.7342080400       -0.3636506181       -0.0013350205
 C         -1.5413264575        0.9211581420       -0.0061639156
 C         -1.0742834464        2.2127788296       -0.0092550174
 C         -2.0108561940        3.2524556670       -0.0108588695
 C         -1.5547989923        4.5886534012       -0.0081274840
 N         -1.1697519751        5.6693106552       -0.0132691818
 C         -3.3832006402        2.9858460935       -0.0108165082
 C         -3.8432824389        1.6826324091       -0.0088821713
 C         -2.9185839443        0.6478985728       -0.0057863583
 C          0.1128285491       -0.4189152906        1.2499273482
 C         -0.4746198453       -0.7241895932        2.4675380166
 C          0.2579552842       -0.7030111491        3.6402824601
 C          1.5984546176       -0.3602432747        3.5957040699
 C          2.2000757043       -0.0555118772        2.3919985403
 C          1.4690364010       -0.0825593450        1.2017353202
 N          2.0821564871        0.2063232319       -0.0058036564
 C          3.4303934279        0.6666600656       -0.0017324776
 C          4.4860472660       -0.2303271558       -0.1087642855
 C          5.7877374120        0.2377740694       -0.1042464401
 C          6.0383338041        1.5954256758        0.0093096614
 C          4.9859863246        2.4881984354        0.1191106325
 C          3.6812861111        2.0268165337        0.1133288657
 C          1.4666356661       -0.0837332837       -1.2119299407
 C          2.1865423491       -0.0375965260       -2.4083546433
 C          1.5805560105       -0.3472277648       -3.6086417734
 C          0.2451528149       -0.7097410415       -3.6448184938
 C         -0.4802245529       -0.7370473824       -2.4677432591
 C          0.1114308412       -0.4268144087       -1.2534750625
 H         -5.0135479236       -3.5663683621        0.0143171160
 H         -5.2286145707       -1.1007763024        0.0010819987
 H         -0.7338921185       -3.2441568117        0.0138504303
 H         -0.0172349499        2.4314953948       -0.0104645619
 H         -4.0790885650        3.8117949042       -0.0124153311
 H         -4.9033131658        1.4790527130       -0.0089402436
 H         -1.5254453575       -0.9744045982        2.4967526524
 H         -0.2162351545       -0.9431993000        4.5788709508
 H          2.1826440638       -0.3317459487        4.5029495999
 H          3.2467814329        0.2061599843        2.3668440592
 H          4.2779725035       -1.2867843464       -0.1953449104
 H          6.6076711453       -0.4593333341       -0.1882232081
 H          7.0551483229        1.9573983866        0.0129939339
 H          5.1786053242        3.5463319082        0.2085059241
 H          2.8544912116        2.7158995685        0.2001269154
 H          3.2274232103        0.2461818541       -2.3926265358
 H          2.1572812684       -0.3049930094       -4.5201473213
 H         -0.2318402642       -0.9555660869       -4.5804578554
 H         -1.5293279395       -0.9948573977       -2.4910348664
  55
        -89.08451270
 N         -0.6596104940       -5.7171728857        0.0197924408
 C         -1.1372410861       -4.6740534323        0.0171412631
 C         -1.7100870788       -3.3834929481        0.0137568934
 C         -3.1006887689       -3.2390665994        0.0163186317
 C         -3.6740810341       -1.9816001429        0.0121495199
 C         -2.8445072420       -0.8690505520        0.0049879219
 C         -1.4487729604       -1.0198530055        0.0027163656
 C         -0.8693271036       -2.2651261194        0.0074491899
 C         -0.7578106594        0.3311099852       -0.0020750459
 C         -1.9417956264        1.2674288469       -0.0058627071
 C         -1.9355900444        2.6420903979       -0.0134974092
 C         -3.1666595425        3.3079054057       -0.0157737758
 C         -3.1929943420        4.7199517290       -0.0243350986
 N         -3.2153587218        5.8668524298       -0.0313812007
 C         -4.3712223584        2.5978431127       -0.0098771405
 C         -4.3689144913        1.2158401744       -0.0023979705
 C         -3.1511748100        0.5503578890       -0.0008448066
 C          0.0792082536        0.4614626719        1.2508445661
 C         -0.5317031084        0.7360998980        2.4638862053
 C          0.1938726839        0.7583885327        3.6411351413
 C          1.5499747854        0.4831905915        3.6060992085
 C          2.1754957193        0.2113540249        2.4066086030
 C          1.4538640034        0.2067939455        1.2105334014
 N          2.0865754904       -0.0454997468        0.0049480185
 C          3.4574114101       -0.4336486632        0.0020898240
 C          3.7783128858       -1.7807542499       -0.0924535757
 C          5.1052852172       -2.1739037496       -0.0983887628
 C          6.1101881233       -1.2254739579       -0.0092024063
 C          5.7898934952        0.1191530273        0.0845811184
 C          4.4653750730        0.5188967557        0.0894709937
 C          1.4591248508        0.2102143132       -1.2027212003
 C          2.1921939852        0.2357311603       -2.3915557526
 C          1.5740643030        0.5084909293       -3.5946841510
 C          0.2148708398        0.7666941259       -3.6395610606
 C         -0.5197542611        0.7335926523       -2.4681681683
 C          0.0839535598        0.4582521108       -1.2515564602
 H         -3.7206148659       -4.1234517613        0.0219104200
 H         -4.7479701255       -1.8724497972        0.0148064047
 H          0.2028858699       -2.3891059671        0.0066354656
 H         -1.0118841293        3.2012609051       -0.0180577746
 H         -5.3032400399        3.1436033380       -0.0113801326
 H         -5.2992345594        0.6685727697        0.0019650760
 H         -1.5954813335        0.9244228780        2.4870828501
 H         -0.2987842334        0.9735454597        4.5762376897
 H          2.1277304278        0.4797974844        4.5179571061
 H          3.2328440848       -0.0034231369        2.3912174217
 H          2.9882474949       -2.5141761348       -0.1625588090
 H          5.3524639766       -3.2221434219       -0.1714713616
 H          7.1444734913       -1.5344332239       -0.0129110472
 H          6.5727182846        0.8594845887        0.1529462609
 H          4.2029609597        1.5645113728        0.1602994322
 H          3.2531641346        0.0398690988       -2.3663770311
 H          2.1601428132        0.5212324009       -4.5011060531
 H         -0.2723471606        0.9817129607       -4.5775628134
 H         -1.5845001185        0.9151897169       -2.4985397093
  55
        -89.08443510
 N         -2.8243582017       -6.0943627756        0.0171023143
 C         -2.8733495832       -4.9483189531        0.0137679006
 C         -2.9378915174       -3.5374480025        0.0113217011
 C         -4.1860649935       -2.9067801897        0.0142564180
 C         -4.2732169101       -1.5275615480        0.0114563800
 C         -3.1010841499       -0.7845842159        0.0056761865
 C         -1.8477730928       -1.4218023200        0.0029511817
 C         -1.7526433738       -2.7933869411        0.0058245981
 C         -0.7272151428       -0.4110672101       -0.0017329093
 C         -1.5040822070        0.8926743480       -0.0041603977
 C         -1.0072114973        2.1730755354       -0.0105979865
 C         -1.9190470689        3.2344395947       -0.0101622081
 C         -1.4303926031        4.5591282024       -0.0153055133
 N         -1.0203152510        5.6306601120       -0.0177697832
 C         -3.2972874274        3.0000773489       -0.0039243058
 C         -3.7874874661        1.7078243492        0.0014797255
 C         -2.8871877748        0.6516843109        0.0014199486
 C          0.1223569716       -0.4801086733        1.2474893382
 C         -0.4492019666       -0.8289735843        2.4605519690
 C          0.2883227260       -0.8064108024        3.6305214407
 C          1.6154260430       -0.4151727508        3.5882919485
 C          2.2018511567       -0.0681533129        2.3882948044
 C          1.4675507605       -0.1007048889        1.2006262784
 N          2.0644482882        0.2259257526       -0.0058733151
 C          3.3923403460        0.7422125794       -0.0019151190
 C          4.4867871139       -0.1104400374       -0.0822360637
 C          5.7671786410        0.4133493100       -0.0758053297
 C          5.9581654251        1.7828094383        0.0122768378
 C          4.8673453038        2.6314992880        0.0943671726
 C          3.5836472038        2.1140653944        0.0871191717
 C          1.4650429870       -0.1011122793       -1.2110483489
 C          2.1894541225       -0.0539552926       -2.4042275607
 C          1.5986544880       -0.4039174793       -3.6012896530
 C          0.2757594152       -0.8096515628       -3.6360602620
 C         -0.4551175769       -0.8374055766       -2.4620547791
 C          0.1206488350       -0.4855258028       -1.2518630480
 H         -5.0807085598       -3.5118379564        0.0189579658
 H         -5.2370227702       -1.0415859024        0.0140574901
 H         -0.7945080621       -3.2913355023        0.0035159609
 H          0.0543703393        2.3673229825       -0.0168034057
 H         -3.9736867273        3.8420829560       -0.0036982353
 H         -4.8519956717        1.5290357538        0.0056330362
 H         -1.4911949008       -1.1133240316        2.4900740332
 H         -0.1731327523       -1.0813443083        4.5659492958
 H          2.2015245039       -0.3824729147        4.4941815542
 H          3.2383997090        0.2312893102        2.3645860969
 H          4.3251089280       -1.1765476339       -0.1492386713
 H          6.6171609862       -0.2493639842       -0.1388903896
 H          6.9584672691        2.1883638474        0.0172599328
 H          5.0130391895        3.6988477845        0.1638319364
 H          2.7278548793        2.7699627217        0.1531929225
 H          3.2212016115        0.2617106474       -2.3886266523
 H          2.1778666714       -0.3602771025       -4.5111582067
 H         -0.1886970608       -1.0877720631       -4.5690551211
 H         -1.4958413836       -1.1269192319       -2.4861452838
  55
        -89.08428809
 N         -2.9098730869       -6.0898850025        0.0299200986
 C         -2.9412324974       -4.9432008184        0.0276447598
 C         -2.9823214481       -3.5314511600        0.0222900989
 C         -4.2200009413       -2.8804450513        0.0285321129
 C         -4.2844212875       -1.5000336189        0.0236062397
 C         -3.1002921298       -0.7764245398        0.0120318881
 C         -1.8574712897       -1.4338626840        0.0060460246
 C         -1.7850450860       -2.8069759617        0.0114078316
 C         -0.7211065377       -0.4415329276       -0.0038388825
 C         -1.4768563209        0.8748113374       -0.0092750069
 C         -0.9599191981        2.1471804691       -0.0237079596
 C         -1.8545909159        3.2230161210       -0.0220271119
 C         -1.3435221912        4.5391516878       -0.0339873528
 N         -0.9141138200        5.6032336360       -0.0386612965
 C         -3.2363223882        3.0108681151       -0.0079733296
 C         -3.7468760920        1.7265535489        0.0037885410
 C         -2.8635536022        0.6561418978        0.0032801133
 C          0.1304606430       -0.5177756114        1.2435838401
 C         -0.4307084842       -0.8874252419        2.4551725123
 C          0.3138602019       -0.8716829002        3.6209257677
 C          1.6375705969       -0.4694264084        3.5756634805
 C          2.2136561950       -0.1022101768        2.3766187334
 C          1.4710395207       -0.1230646614        1.1940486010
 N          2.0586843809        0.2220225643       -0.0124780572
 C          3.3655901609        0.7870587259       -0.0020544819
 C          4.4899269603       -0.0093301780       -0.1842053359
 C          5.7483607189        0.5652182729       -0.1700726412
 C          5.8888615911        1.9289768424        0.0296691266
 C          4.7688924127        2.7211598374        0.2173324734
 C          3.5070546436        2.1531979342        0.2013200746
 C          1.4661146604       -0.1235118429       -1.2166708871
 C          2.1858774905       -0.0701800308       -2.4121671616
 C          1.6001851132       -0.4443900420       -3.6045456624
 C          0.2865448993       -0.8791838085       -3.6328119857
 C         -0.4429699004       -0.9060757001       -2.4578789334
 C          0.1274134417       -0.5295258966       -1.2527535526
 H         -5.1244296872       -3.4707333909        0.0377089269
 H         -5.2400525606       -0.9982025743        0.0288789041
 H         -0.8352385127       -3.3206501882        0.0062824889
 H          0.1042913096        2.3249501836       -0.0385884662
 H         -3.8992052042        3.8635497487       -0.0071745723
 H         -4.8140589345        1.5647576992        0.0131691366
 H         -1.4694664413       -1.1828213171        2.4876036967
 H         -0.1394521363       -1.1621044699        4.5556568945
 H          2.2292878953       -0.4447933294        4.4781458933
 H          3.2486337555        0.2024525403        2.3492001165
 H          4.3691085469       -1.0724046690       -0.3345513651
 H          6.6211072841       -0.0541465160       -0.3130084227
 H          6.8721608054        2.3740218955        0.0402490384
 H          4.8745303080        3.7838710664        0.3746882791
 H          2.6295897544        2.7655948279        0.3501939951
 H          3.2093534061        0.2710892552       -2.4039732834
 H          2.1764113927       -0.3961664409       -4.5160824713
 H         -0.1730803134       -1.1777338049       -4.5618801509
 H         -1.4785612206       -1.2134780286       -2.4779583536
