  52
        -89.84621750
 N         -5.9672081601       -1.8453199939        0.8831253269
 C         -4.9907128747       -1.2831722809        0.6274783778
 C         -3.7949157622       -0.6470336342        0.3102844833
 C         -2.5786207219       -1.2552508755        0.6091797254
 C         -1.3744175123       -0.6369579093        0.3395380194
 N         -0.1718373029       -1.2208820011        0.7313442303
 C          0.8987489884       -0.5433114771        1.2949076353
 C          0.9111393390        0.6812416044        1.9455163830
 C          2.1269941155        1.1521543061        2.4093968906
 C          3.2973820328        0.4110774426        2.2574766869
 C          3.2803933482       -0.8427442669        1.6758682921
 C          2.0700491390       -1.3322559550        1.2014829959
 C          1.6704105771       -2.5646362751        0.5956627813
 N          2.3692468164       -3.6400505725        0.2835108700
 C          1.7496559620       -4.6358385832       -0.3124853286
 C          0.3996792983       -4.6022072002       -0.6631594629
 C         -0.3727725515       -3.5026328968       -0.3176053434
 C          0.2674657387       -2.4634857144        0.3366435416
 C         -1.3704564428        0.6467937355       -0.3357316181
 N         -0.1642047217        1.2232086499       -0.7275998697
 C          0.8999289131        0.5399911178       -1.2964540120
 C          0.9031307297       -0.6849802851       -1.9463909127
 C          2.1143202748       -1.1617040556       -2.4167522044
 C          3.2888720724       -0.4257785768       -2.2723827729
 C          3.2810354943        0.8277732789       -1.6899715555
 C          2.0758198950        1.3224471213       -1.2078058375
 C          1.6864541215        2.5553624165       -0.5964034224
 N          2.3937566555        3.6244038811       -0.2818845042
 C          1.7833316808        4.6208316701        0.3224736535
 C          0.4346750737        4.5942333109        0.6788637663
 C         -0.3466752761        3.5019890870        0.3304508543
 C          0.2840757053        2.4619490599       -0.3316598288
 C         -2.5707203919        1.2721607050       -0.6063905697
 C         -3.7907642712        0.6703336666       -0.3101615450
 C         -4.9831951963        1.3112097103       -0.6300949057
 N         -5.9583121872        1.8732066464       -0.8910619979
 H         -2.5868353993       -2.2073203216        1.1194704926
 H          0.0010925524        1.2423974854        2.0969823610
 H          2.1652659408        2.1106670746        2.9040134708
 H          4.2272697550        0.8207230205        2.6186383076
 H          4.1742349779       -1.4383605607        1.5877116198
 H          2.3538588434       -5.5075351388       -0.5199280301
 H         -0.0455393458       -5.4427771570       -1.1698886915
 H         -1.4284581964       -3.4736521578       -0.5440297836
 H         -0.0103973273       -1.2418384122       -2.0931949371
 H          2.1449623393       -2.1199031203       -2.9124953106
 H          4.2149474464       -0.8397869181       -2.6390892541
 H          4.1785982753        1.4186626270       -1.6054807805
 H          2.3946184768        5.4869356884        0.5331565658
 H         -0.0023305891        5.4343946840        1.1934604882
 H         -1.4015334332        3.4786241847        0.5613578613
 H         -2.5726437212        2.2246035707       -1.1161754274
  52
        -89.84372859
 N         -5.9599615502       -0.9964221676        1.7892492314
 C         -4.9812346831       -0.7014221453        1.2498617460
 C         -3.7858815083       -0.3392651672        0.6385867168
 C         -2.5689630353       -0.6740580700        1.2284276903
 C         -1.3682073945       -0.3684535739        0.6229442214
 N         -0.1580085448       -0.8003159092        1.1663426042
 C          0.3039666404       -0.5106780586        2.4385218986
 C         -0.3631705704        0.0736416584        3.5069659224
 C          0.3518541057        0.3012994735        4.6689622965
 C          1.7000113220       -0.0409645121        4.7726819631
 C          2.3790498587       -0.6047141779        3.7080518375
 C          1.6827400749       -0.8326346303        2.5289789130
 C          2.0596109310       -1.3563189844        1.2506776533
 N          3.2220623792       -1.7933102524        0.8019666866
 C          3.2729941559       -2.2575598864       -0.4288141086
 C          2.1636983114       -2.3326457566       -1.2715199485
 C          0.9264429860       -1.8955088556       -0.8227348031
 C          0.8817699413       -1.3461971966        0.4470911415
 C         -1.3658936188        0.3711195558       -0.6237097563
 N         -0.1530571303        0.7956646699       -1.1671699744
 C          0.3084056917        0.5013638521       -2.4382016296
 C         -0.3595338238       -0.0876245261       -3.5036138344
 C          0.3553491722       -0.3219409796       -4.6642633512
 C          1.7038693265        0.0186067160       -4.7696542839
 C          2.3834440731        0.5876296814       -3.7081573055
 C          1.6873079414        0.8223647844       -2.5303299025
 C          2.0648333137        1.3499508121       -1.2536667662
 N          3.2276825960        1.7882662500       -0.8069004118
 C          3.2795057599        2.2546649807        0.4230642848
 C          2.1708771366        2.3305147270        1.2669043780
 C          0.9332095668        1.8921709389        0.8200928742
 C          0.8874666533        1.3417730439       -0.4493365995
 C         -2.5643019053        0.6860811057       -1.2288960364
 C         -3.7835858831        0.3633286965       -0.6373209125
 C         -4.9759707182        0.7410648884       -1.2450908699
 N         -5.9555640330        1.0412512990       -1.7806058518
 H         -2.5761433810       -1.2406095447        2.1477640313
 H         -1.4039901186        0.3494054086        3.4370099841
 H         -0.1471988295        0.7523962471        5.5128179367
 H          2.2205535390        0.1500018365        5.6984765680
 H          3.4259865298       -0.8543944782        3.7713013974
 H          4.2404238275       -2.6091460875       -0.7567077732
 H          2.2655662520       -2.7555176497       -2.2574931682
 H          0.0377816880       -2.0029854794       -1.4282305322
 H         -1.4011145570       -0.3609855953       -3.4322486842
 H         -0.1435325182       -0.7787769576       -5.5050448699
 H          2.2244259328       -0.1782012735       -5.6941364513
 H          3.4307890258        0.8357330158       -3.7727390608
 H          4.2467325489        2.6087979104        0.7487771885
 H          2.2737002120        2.7545233106        2.2523357719
 H          0.0454719313        1.9978254791        1.4273685550
 H         -2.5670233107        1.2537534115       -2.1476386094
