  52
        -89.84621750
 N         -5.9672081601       -1.8453199939        0.8831253269
 C         -4.9907128747       -1.2831722809        0.6274783778
 C         -3.7949157622       -0.6470336342        0.3102844833
 C         -2.5786207219       -1.2552508755        0.6091797254
 C         -1.3744175123       -0.6369579093        0.3395380194
 N         -0.1718373029       -1.2208820011        0.7313442303
 C          0.8987489884       -0.5433114771        1.2949076353
 C          0.9111393390        0.6812416044        1.9455163830
 C          2.1269941155        1.1521543061        2.4093968906
 C          3.2973820328        0.4110774426        2.2574766869
 C          3.2803933482       -0.8427442669        1.6758682921
 C          2.0700491390       -1.3322559550        1.2014829959
 C          1.6704105771       -2.5646362751        0.5956627813
 N          2.3692468164       -3.6400505725        0.2835108700
 C          1.7496559620       -4.6358385832       -0.3124853286
 C          0.3996792983       -4.6022072002       -0.6631594629
 C         -0.3727725515       -3.5026328968       -0.3176053434
 C          0.2674657387       -2.4634857144        0.3366435416
 C         -1.3704564428        0.6467937355       -0.3357316181
 N         -0.1642047217        1.2232086499       -0.7275998697
 C          0.8999289131        0.5399911178       -1.2964540120
 C          0.9031307297       -0.6849802851       -1.9463909127
 C          2.1143202748       -1.1617040556       -2.4167522044
 C          3.2888720724       -0.4257785768       -2.2723827729
 C          3.2810354943        0.8277732789       -1.6899715555
 C          2.0758198950        1.3224471213       -1.2078058375
 C          1.6864541215        2.5553624165       -0.5964034224
 N          2.3937566555        3.6244038811       -0.2818845042
 C          1.7833316808        4.6208316701        0.3224736535
 C          0.4346750737        4.5942333109        0.6788637663
 C         -0.3466752761        3.5019890870        0.3304508543
 C          0.2840757053        2.4619490599       -0.3316598288
 C         -2.5707203919        1.2721607050       -0.6063905697
 C         -3.7907642712        0.6703336666       -0.3101615450
 C         -4.9831951963        1.3112097103       -0.6300949057
 N         -5.9583121872        1.8732066464       -0.8910619979
 H         -2.5868353993       -2.2073203216        1.1194704926
 H          0.0010925524        1.2423974854        2.0969823610
 H          2.1652659408        2.1106670746        2.9040134708
 H          4.2272697550        0.8207230205        2.6186383076
 H          4.1742349779       -1.4383605607        1.5877116198
 H          2.3538588434       -5.5075351388       -0.5199280301
 H         -0.0455393458       -5.4427771570       -1.1698886915
 H         -1.4284581964       -3.4736521578       -0.5440297836
 H         -0.0103973273       -1.2418384122       -2.0931949371
 H          2.1449623393       -2.1199031203       -2.9124953106
 H          4.2149474464       -0.8397869181       -2.6390892541
 H          4.1785982753        1.4186626270       -1.6054807805
 H          2.3946184768        5.4869356884        0.5331565658
 H         -0.0023305891        5.4343946840        1.1934604882
 H         -1.4015334332        3.4786241847        0.5613578613
 H         -2.5726437212        2.2246035707       -1.1161754274
