  72
  -113.415986452600       0.453612087297387      !
 C         -2.2482033968       -0.0107786301       -3.1846543993
 C         -3.1449715986       -0.0063889951       -2.1928527027
 C         -2.7847007866        0.0055956255       -0.7251662603
 C         -1.3113081901        0.0213413239       -0.4816480234
 C         -0.4200238665        0.0089329249       -1.4954846075
 C         -0.8466223867       -0.0079593772       -2.9008997860
 C          0.2579198052       -0.0241766849       -3.6887645837
 C          1.4342779938       -0.0204135814       -2.8404136319
 C          0.9988429584        0.0028221740       -1.5014909542
 C          1.9016963170        0.0043731476       -0.3017891569
 C          3.3229528806       -0.0158429028       -0.7655173276
 C          4.4974011119       -0.0130590853        0.0401753359
 C          4.6899422614        0.0139071533        1.4106797673
 C          5.9943744080        0.0145552243        1.9009501754
 C          7.0825297084       -0.0127431046        1.0430585379
 C          6.9090842280       -0.0406910106       -0.3396767135
 C          5.6214140707       -0.0396544902       -0.8488251385
 C          5.1225564556       -0.0573644733       -2.1813152233
 C          3.7182803255       -0.0401873377       -2.1314212473
 C          2.7766291907       -0.0422913580       -3.1835199996
 C          1.6260225353       -1.2790312110        0.4669122379
 C          1.8578571478       -2.4700798095       -0.2171507984
 C          1.5944064530       -3.6984334418        0.3552594011
 C          1.0830177029       -3.7614173583        1.6422626197
 C          0.8489134896       -2.5945236123        2.3373604837
 C          1.1202813134       -1.3575129348        1.7561503951
 S          0.7646246747        0.0437046959        2.7678613946
 C          1.1498325066        1.4187499801        1.7313001800
 C          0.9065162928        2.6717730085        2.2899636189
 C          1.1749863812        3.8205449336        1.5772419339
 C          1.6933139519        3.7232238484        0.2952640475
 C          1.9251528841        2.4791642860       -0.2563176151
 C          1.6571942020        1.3060817531        0.4452424017
 C         -3.3731060379       -1.2558188805       -0.1040293879
 C         -2.5603563280       -2.3567809224        0.1427302420
 C         -3.0810946159       -3.5319936943        0.6512673678
 C         -4.4364842403       -3.6312875924        0.9200599125
 C         -5.2592164355       -2.5485551023        0.6844182997
 C         -4.7296247562       -1.3684808037        0.1763744565
 S         -5.8536962888       -0.0313505165       -0.0980999248
 C         -4.7656059934        1.3386511768        0.1583136681
 C         -5.3266302786        2.5119089228        0.6477158665
 C         -4.5327492335        3.6194124707        0.8678439239
 C         -3.1748464636        3.5514599296        0.6035091585
 C         -2.6225680846        2.3826934414        0.1132836162
 C         -3.4058805427        1.2577543612       -0.1188433576
 H         -2.5691789379       -0.0198670221       -4.2170890093
 H         -4.2039694063       -0.0111758913       -2.4061662996
 H         -1.0075109811        0.0369375010        0.5543938869
 H          0.2890044941       -0.0400068313       -4.7630305149
 H          3.8522940537        0.0353337751        2.0916642037
 H          6.1584847499        0.0353585608        2.9682076973
 H          8.0821348888       -0.0141878625        1.4520217166
 H          7.7648039928       -0.0629792237       -0.9987431282
 H          5.7198186483       -0.0783354889       -3.0744585506
 H          3.1015327000       -0.0623934546       -4.2120476321
 H          2.2470192783       -2.4188347583       -1.2234715079
 H          1.7841744526       -4.6030057636       -0.2020766687
 H          0.8682075842       -4.7141597133        2.1019728215
 H          0.4491531676       -2.6183172298        3.3401943060
 H          0.5026685521        2.7226502643        3.2901557274
 H          0.9820595806        4.7857965219        2.0201658029
 H          1.9119925704        4.6131796241       -0.2748448776
 H          2.3177349664        2.4005884663       -1.2595728347
 H         -1.5054486407       -2.2960752885       -0.0826410053
 H         -2.4254031095       -4.3707047521        0.8298470536
 H         -4.8512472477       -4.5473958911        1.3123302021
 H         -6.3181189786       -2.6015886721        0.8870812796
 H         -6.3867855207        2.5400804488        0.8490793087
 H         -4.9726770969        4.5292034057        1.2471341668
 H         -2.5418139994        4.4092409436        0.7725888897
 H         -1.5657184951        2.3451654570       -0.1084857741
  72
  -113.415706459700       0.337294136107246      !
 C         -2.2533675078       -0.1212789754       -3.1793593653
 C         -3.1505036793       -0.0947384600       -2.1883967167
 C         -2.7897016970       -0.0272051496       -0.7223687827
 C         -1.3171831347       -0.0770256866       -0.4763603938
 C         -0.4249229519       -0.0944147620       -1.4894825572
 C         -0.8519856897       -0.1032217916       -2.8949898687
 C          0.2517829060       -0.0886859645       -3.6836981822
 C          1.4281757290       -0.0638174794       -2.8359077524
 C          0.9942681955       -0.0800064298       -1.4963461515
 C          1.9006591414       -0.0682545473       -0.2990543893
 C          3.3184645325        0.0238143765       -0.7654931460
 C          4.4919237768        0.0989833426        0.0382685475
 C          4.6865979443        0.1135090293        1.4086960518
 C          5.9891095289        0.2012343349        1.8963848838
 C          7.0735163840        0.2729059508        1.0362659152
 C          6.8980754035        0.2577220821       -0.3463582401
 C          5.6122729122        0.1701497745       -0.8528892802
 C          5.1125899914        0.1345022776       -2.1846537843
 C          3.7111449192        0.0456997612       -2.1321549542
 C          2.7686977280       -0.0064311759       -3.1820708207
 C          1.7204869628       -1.4016512192        0.4119542922
 C          2.0472323326       -2.5413991424       -0.3195442474
 C          1.8825765440       -3.8090707312        0.2009415336
 C          1.3741953256       -3.9656128143        1.4812780314
 C          1.0465276718       -2.8507807992        2.2223399575
 C          1.2216610606       -1.5728591186        1.6946857752
 S          0.7665008712       -0.2475682906        2.7663991894
 C          1.0652924592        1.1974268777        1.7982107376
 C          0.7439211292        2.4044039505        2.4156249906
 C          0.9300500567        3.5998339110        1.7554431799
 C          1.4437865367        3.5960827417        0.4678054709
 C          1.7567826450        2.3969930187       -0.1406224480
 C          1.5731403126        1.1778149718        0.5074757120
 C         -3.4591675658       -1.2014310614       -0.0232114777
 C         -2.7200764714       -2.3345625766        0.2972109585
 C         -3.3152396996       -3.4357387935        0.8843977125
 C         -4.6728893976       -3.4263841831        1.1589392520
 C         -5.4240956966       -2.3108213724        0.8480225423
 C         -4.8198127008       -1.2059815610        0.2609890277
 S         -5.8551436273        0.1787710945       -0.1109145027
 C         -4.6809609190        1.4898138159        0.0581801749
 C         -5.1670690109        2.7275961034        0.4611552766
 C         -4.3043653800        3.7944212289        0.6127843549
 C         -2.9523609273        3.6202441742        0.3679150682
 C         -2.4747217565        2.3876016738       -0.0369765336
 C         -3.3281922233        1.3024665439       -0.2014421230
 H         -2.5731651344       -0.1575658911       -4.2115528095
 H         -4.2094402934       -0.1066630991       -2.4016454965
 H         -1.0144144908       -0.0620932746        0.5599970377
 H          0.2827788341       -0.0877530505       -4.7581032137
 H          3.8522457615        0.0588994438        2.0918316435
 H          6.1546806610        0.2141629756        2.9635021403
 H          8.0714707817        0.3420784381        1.4434400242
 H          7.7504313703        0.3140496697       -1.0077754279
 H          5.7071923050        0.1718711590       -3.0790245115
 H          3.0904910274        0.0111825575       -4.2116507321
 H          2.4326231955       -2.4182384492       -1.3209275364
 H          2.1461398445       -4.6722128155       -0.3910105095
 H          1.2353600130       -4.9508641529        1.8998252105
 H          0.6489514404       -2.9474589758        3.2217426027
 H          0.3431145408        2.3822249854        3.4180750897
 H          0.6746007721        4.5286218500        2.2423979698
 H          1.5959778504        4.5240095066       -0.0620893158
 H          2.1467483181        2.3901042934       -1.1481163916
 H         -1.6643656353       -2.3580210224        0.0673456337
 H         -2.7163169231       -4.3020515635        1.1211010091
 H         -5.1454021402       -4.2829349110        1.6152138749
 H         -6.4833734378       -2.2800712884        1.0535064696
 H         -6.2242468347        2.8377717369        0.6496107274
 H         -4.6860576289        4.7553414256        0.9228324917
 H         -2.2646351664        4.4441033260        0.4838632197
 H         -1.4211960166        2.2690019801       -0.2433598310
  72
  -113.414402751400       8.489183861061823E-002 !
 C         -2.2803767471       -0.2320050348       -3.4726890645
 C         -3.2273909540       -0.1733866664       -2.5286899256
 C         -2.9445431590       -0.0690410684       -1.0562143802
 C         -1.4887667061       -0.2171939780       -0.7247313248
 C         -0.5446300753       -0.2177149508       -1.6890819161
 C         -0.8948663940       -0.2089484051       -3.1146058141
 C          0.2500457810       -0.1693199276       -3.8414206926
 C          1.3765351989       -0.1250573814       -2.9285975284
 C          0.8705771589       -0.1852947500       -1.6152765647
 C          1.7063278162       -0.1473607717       -0.3679989511
 C          3.1342244166        0.0756889136       -0.7517609558
 C          4.2502623121        0.2401450311        0.1174531271
 C          4.3647800206        0.2616222956        1.4969607744
 C          5.6256542642        0.4525799797        2.0582904937
 C          6.7477195694        0.6192896210        1.2616155898
 C          6.6533703444        0.5974487029       -0.1285624742
 C          5.4101971442        0.4063153680       -0.7080088428
 C          4.9923137730        0.3348434365       -2.0661650432
 C          3.6022675468        0.1324745064       -2.0939270027
 C          2.7281956408        0.0179920752       -3.1969558703
 C          1.6183308046       -1.5196631294        0.2872598546
 C          2.0954636076       -2.5952909295       -0.4585782140
 C          2.0473993420       -3.8887206403        0.0204621654
 C          1.5080569372       -4.1382374982        1.2729973750
 C          1.0281092025       -3.0885646339        2.0255419486
 C          1.0838885685       -1.7832776229        1.5399063795
 S          0.4354651460       -0.5532238116        2.6224686177
 C          0.6264180003        0.9470399624        1.7144483343
 C          0.1248267829        2.0869798296        2.3387785357
 C          0.2185286351        3.3180297725        1.7266574111
 C          0.8260658188        3.4183220798        0.4849311789
 C          1.3134430572        2.2840707706       -0.1327622531
 C          1.2178050983        1.0287912623        0.4620843289
 C         -3.6954288889       -1.1328640818       -0.2749786642
 C         -4.1361111329       -2.2880759645       -0.9090747463
 C         -4.7384657048       -3.3116896754       -0.2005533925
 C         -4.9090723381       -3.1995901947        1.1692378093
 C         -4.4755013752       -2.0615414050        1.8187740499
 C         -3.8683626053       -1.0376166373        1.1020705682
 S         -3.3106805963        0.3600849639        2.0295219211
 C         -3.3845127099        1.6214165043        0.7971564800
 C         -3.5596377458        2.9245255778        1.2465640464
 C         -3.6151923650        3.9678392288        0.3453148793
 C         -3.5076574139        3.7041396269       -1.0099126527
 C         -3.3322147431        2.4057789462       -1.4518770109
 C         -3.2653431365        1.3416799866       -0.5604397862
 H         -2.5444058872       -0.2856778815       -4.5203694576
 H         -4.2759043445       -0.1573688236       -2.7948017400
 H         -1.2378019086       -0.2516339620        0.3227960731
 H          0.3408206873       -0.1519278349       -4.9124921090
 H          3.4997462518        0.1350387805        2.1305532511
 H          5.7287859388        0.4724692171        3.1331932956
 H          7.7117224880        0.7679546321        1.7254213328
 H          7.5346325870        0.7265466186       -0.7401327835
 H          5.6321667452        0.4238926271       -2.9250345489
 H          3.1062239314        0.0715332214       -4.2061064609
 H          2.5078981088       -2.4021151819       -1.4377535271
 H          2.4271415516       -4.7000375379       -0.5816702376
 H          1.4610951843       -5.1448700044        1.6598557217
 H          0.6006073750       -3.2577682192        3.0027165504
 H         -0.3442281617        1.9817167989        3.3056520339
 H         -0.1796574478        4.1942838622        2.2149713890
 H          0.9120827937        4.3765600955       -0.0041972950
 H          1.7732054312        2.3567787770       -1.1078360407
 H         -3.9821443156       -2.3928738564       -1.9727605786
 H         -5.0653875633       -4.2004787342       -0.7187827047
 H         -5.3749794293       -3.9955155532        1.7301212604
 H         -4.5925207125       -1.9531732387        2.8863710105
 H         -3.6455949339        3.1026085362        2.3077633917
 H         -3.7450347530        4.9796772414        0.6980828616
 H         -3.5518589204        4.5101480822       -1.7266867826
 H         -3.2289698403        2.2129676251       -2.5088557412
  72
  -113.414234727500       7.106364862929251E-002 !
 C         -2.2753091151        0.1050270353       -3.4900288396
 C         -3.2196979414        0.0735038018       -2.5421148443
 C         -2.9355382297        0.0829560619       -1.0660168526
 C         -1.4850847288        0.2954837329       -0.7466871819
 C         -0.5412001220        0.2249933995       -1.7096895680
 C         -0.8899430608        0.1366574324       -3.1326627731
 C          0.2562890958        0.0749299714       -3.8564818535
 C          1.3816480391        0.0729626906       -2.9413059656
 C          0.8732022978        0.1900925969       -1.6328820206
 C          1.6957089322        0.1304070708       -0.3780639621
 C          3.1259893094       -0.0992887570       -0.7489503663
 C          4.2390309738       -0.2423023466        0.1282941513
 C          4.3466631329       -0.2502350518        1.5085366720
 C          5.6075023913       -0.4142138365        2.0783663010
 C          6.7369051027       -0.5677463201        1.2895657301
 C          6.6491736440       -0.5637924472       -0.1011324488
 C          5.4056995722       -0.4021139757       -0.6889488669
 C          4.9940394344       -0.3559185014       -2.0499176065
 C          3.6019263883       -0.1700864609       -2.0878191763
 C          2.7339984725       -0.0836431454       -3.1982777485
 C          1.1726540166       -1.0578117560        0.4158666941
 C          1.1918069918       -2.2896274220       -0.2333980359
 C          0.6530294972       -3.4219848130        0.3432353895
 C          0.0715105414       -3.3440533316        1.5988015431
 C          0.0581310742       -2.1387317766        2.2662349354
 C          0.6106857061       -1.0007432600        1.6826385628
 S          0.5334240741        0.4619137260        2.6646966381
 C          1.1452885821        1.7187999641        1.5905286588
 C          1.1232811329        3.0101962909        2.1140656925
 C          1.5782637929        4.0765103909        1.3692323047
 C          2.0549810907        3.8587586987        0.0857764311
 C          2.0711827406        2.5786682141       -0.4298346657
 C          1.6220868682        1.4863291184        0.3089177117
 C         -3.1821708872       -1.3064905920       -0.4732406777
 C         -3.1682456887       -2.4333218853       -1.2865613198
 C         -3.2703524079       -3.7051769767       -0.7543564993
 C         -3.3866321015       -3.8781765971        0.6145865878
 C         -3.4084406313       -2.7723004893        1.4391763741
 C         -3.3021705130       -1.4964056455        0.8997410282
 S         -3.3098276921       -0.1500578138        2.0408243847
 C         -3.9394173581        1.1432219669        1.0134545232
 C         -4.6253704054        2.1702394670        1.6501518975
 C         -5.1227171353        3.2296141139        0.9185835649
 C         -4.9321632834        3.2616145449       -0.4527163622
 C         -4.2500381809        2.2355713367       -1.0808175977
 C         -3.7481606463        1.1556271785       -0.3642079022
 H         -2.5409918267        0.0826176676       -4.5383928060
 H         -4.2665786930        0.0020722942       -2.8048139520
 H         -1.2327868127        0.4162757306        0.2947161454
 H          0.3479122071        0.0068840335       -4.9254500659
 H          3.4770804101       -0.1332315347        2.1373681842
 H          5.7048260911       -0.4216855343        3.1539103790
 H          7.7011050378       -0.6927700774        1.7598906210
 H          7.5357027807       -0.6838580992       -0.7068536800
 H          5.6395852400       -0.4489804815       -2.9040761503
 H          3.1172808220       -0.1695972934       -4.2032075832
 H          1.6322576421       -2.3452210169       -1.2183040199
 H          0.6786062524       -4.3607521187       -0.1885196165
 H         -0.3680404056       -4.2177715806        2.0548106156
 H         -0.3869378330       -2.0517405016        3.2461783169
 H          0.7435593909        3.1552605662        3.1145134828
 H          1.5604036510        5.0718155660        1.7863483324
 H          2.4125207874        4.6840995960       -0.5108741986
 H          2.4382988941        2.4077645229       -1.4311403112
 H         -3.0591765678       -2.3094726041       -2.3531872586
 H         -3.2524403635       -4.5611876646       -1.4115618873
 H         -3.4623706444       -4.8684112695        1.0374253349
 H         -3.5012514191       -2.8791065635        2.5092720216
 H         -4.7558306575        2.1255319813        2.7207252065
 H         -5.6526470007        4.0269833702        1.4167827934
 H         -5.3062959168        4.0900428996       -1.0350593922
 H         -4.0827831426        2.2804160631       -2.1466366879
  72
  -113.413960035000       5.313828935545572E-002 !
 C         -2.2588087032        0.0296982982       -3.4802620355
 C         -3.2066699938        0.0236648253       -2.5357552837
 C         -2.9318578503        0.0078019735       -1.0579393873
 C         -1.4685357682        0.0510732372       -0.7296431580
 C         -0.5257054012        0.0415286974       -1.6947350238
 C         -0.8738862216        0.0258186251       -3.1206719303
 C          0.2722110776        0.0079090462       -3.8466034323
 C          1.3992034663        0.0033768577       -2.9333794432
 C          0.8903274089        0.0328841811       -1.6205723670
 C          1.7245993008        0.0326367082       -0.3719808446
 C          3.1678836737       -0.0370422423       -0.7557250237
 C          4.2956703046       -0.0710391076        0.1133861666
 C          4.4123849733       -0.0668282229        1.4928513678
 C          5.6871521666       -0.1060974105        2.0542186224
 C          6.8208581387       -0.1483406565        1.2575542446
 C          6.7239970372       -0.1537911994       -0.1326262478
 C          5.4666541326       -0.1155127832       -0.7120951714
 C          5.0427521747       -0.1085795481       -2.0701590058
 C          3.6386841309       -0.0597793663       -2.0979117618
 C          2.7579099012       -0.0381513765       -3.2011608042
 C          1.3574003288       -1.2198929888        0.4087257389
 C          1.5831126168       -2.4348844402       -0.2331965627
 C          1.2247467553       -3.6369156077        0.3430786991
 C          0.6159878795       -3.6479088700        1.5884262555
 C          0.3919780544       -2.4571173736        2.2446390645
 C          0.7665910663       -1.2474536520        1.6635390332
 S          0.4334211810        0.1871406310        2.6333852237
 C          0.9225359522        1.5203171970        1.5891290408
 C          0.7045774285        2.7936933302        2.1114743374
 C          1.0558982113        3.9155620601        1.3926933467
 C          1.6305394221        3.7707202550        0.1394204736
 C          1.8363346819        2.5075118835       -0.3771627533
 C          1.4873034922        1.3608655356        0.3323231804
 C         -3.4327813239       -1.2944933520       -0.4415495502
 C         -3.6415711771       -2.4150960520       -1.2361302849
 C         -4.0026835757       -3.6302472244       -0.6836910725
 C         -4.1573110126       -3.7507031406        0.6872546827
 C         -3.9566850424       -2.6489800883        1.4937722517
 C         -3.5948910275       -1.4301986759        0.9332874367
 S         -3.3425301448       -0.0838996907        2.0482777772
 C         -3.7252924283        1.2814460303        0.9939744905
 C         -4.2015861234        2.4333573744        1.6077597017
 C         -4.5032484492        3.5475958245        0.8512910269
 C         -4.3333908906        3.5070429680       -0.5225639144
 C         -3.8589927010        2.3578044333       -1.1281204465
 C         -3.5495040138        1.2255304136       -0.3847346047
 H         -2.5220007340        0.0347678220       -4.5294777600
 H         -4.2553784146        0.0177556105       -2.8022655880
 H         -1.2135657009        0.0708451142        0.3174886290
 H          0.3638849620       -0.0072030561       -4.9176371704
 H          3.5388271563       -0.0345305869        2.1264654226
 H          5.7923209934       -0.1030981689        3.1290629287
 H          7.7957178727       -0.1777000824        1.7212822640
 H          7.6140202100       -0.1865062802       -0.7441825996
 H          5.6881764343       -0.1358523451       -2.9290190472
 H          3.1396226277       -0.0610870471       -4.2100596242
 H          2.0440720217       -2.4226701828       -1.2101711080
 H          1.4130636236       -4.5619333405       -0.1801708558
 H          0.3186752738       -4.5792194359        2.0456978298
 H         -0.0793886869       -2.4392138896        3.2159789434
 H          0.2543834354        2.8804453466        3.0891839997
 H          0.8828016473        4.8971715686        1.8069417626
 H          1.9135490014        4.6397171128       -0.4348422125
 H          2.2739826201        2.3933898184       -1.3580665164
 H         -3.5012843946       -2.3346529144       -2.3035727974
 H         -4.1552492388       -4.4844941026       -1.3257566759
 H         -4.4344397227       -4.6970218769        1.1263122067
 H         -4.0723592142       -2.7167854150        2.5648612499
 H         -4.3239960573        2.4408079555        2.6802163196
 H         -4.8684034687        4.4424799343        1.3318822260
 H         -4.5608783233        4.3735392847       -1.1248453879
 H         -3.7057138366        2.3410591047       -2.1968169804
