79
 energy: -122.173907250719 gnorm: 0.000045046435 xtb: 6.7.1 (edcfbbe)
C           -1.01589213470559        0.51826184212949        4.75756742549524
C           -1.66730316758242        0.12911549556481        3.46294920783353
C           -1.39286268981993       -1.12626940074226        2.90789574476787
C           -1.94949687376183       -1.54323760818846        1.71558858314880
C           -2.80550859652046       -0.66906093145957        1.06177685597688
C           -3.11685798137504        0.59233215010167        1.61400118298737
C           -2.53918039055340        0.98630243131385        2.81466071449247
C           -4.03846324181515        1.21784002110195        0.70546803441963
C           -4.67460279324599        2.45323631711042        0.68824445909025
C           -5.50681745314558        2.77454031992475       -0.37004193966619
C           -6.21493074180748        4.09647052761203       -0.42418407504123
C           -5.68835132445238        1.85554282443078       -1.41013184652813
C           -5.06775152084623        0.62207047395750       -1.42043798734959
C           -4.24646226584821        0.30262719250570       -0.34959000480439
N           -3.49359632222881       -0.83471241109438       -0.12485647521089
C           -3.35590538739723       -1.91497476110653       -1.00771054474434
C           -4.47551687538695       -2.66565879626243       -1.35157617307469
C           -4.35851844979709       -3.76017369272996       -2.18798222109514
C           -3.11477666113967       -4.13240949816297       -2.67912532360939
C           -1.99674467750004       -3.38882179071126       -2.35954133788510
C           -2.10418632393427       -2.26310641083168       -1.54127533345410
C           -0.91892434854795       -1.46730182254410       -1.30480151782947
N            0.31171471486098       -1.82538183603523       -1.54235285493482
N            1.09850528967458       -0.79280715770497       -1.20495844372245
C            0.32265890204427        0.16036278684287       -0.77545689779026
C            0.66435538260834        1.48902170839678       -0.32086221629786
C           -0.35193277250275        2.44304463113707       -0.23245156373703
C           -0.06770077393789        3.74684046823738        0.11745475553942
C            1.24272247229483        4.11935502274334        0.38155669414569
C            2.25512310921171        3.18046349087049        0.32513318465426
C            1.98390010520134        1.85557045842220       -0.01013163258492
N            3.02224005029359        0.92374405673679       -0.00414810922350
C            4.20664589534772        1.03690838096488       -0.70901257713263
C            4.61673175826391        2.01575023276060       -1.60167236959624
C            5.85753009315711        1.87322963898689       -2.19128899036436
C            6.69056969092040        0.78187696053331       -1.92217491179984
C            8.02904124059385        0.69288162827882       -2.59543992238867
C            6.26542192403620       -0.20099249841191       -1.04473690483206
C            5.02250807572901       -0.08179325985523       -0.43614293168712
C            4.29153158492998       -0.90316101763976        0.48949436914220
C            4.58120642880032       -2.09671933654671        1.13739812155112
C            3.65798746264683       -2.63403523753754        2.01733361293734
C            3.92459724148203       -3.93212128716453        2.72233383740712
C            2.45678856941068       -1.95714278412166        2.25227498884639
C            2.14453399591294       -0.76821422342701        1.62392027452161
C            3.06187707647160       -0.25062946081728        0.72226672374515
O           -0.97791249277731       -0.20595684963906       -0.82972334150686
H            0.06828608726840        0.44305667007195        4.67757578729978
H           -1.33663304002264       -0.14830354050398        5.55816449584137
H           -1.27453004788068        1.53797283631542        5.03126267028999
H           -0.72063010470622       -1.78936988451022        3.43321612775716
H           -1.71613946325393       -2.51572705117733        1.30380376444429
H           -2.76893945632371        1.95459790681946        3.23456711221714
H           -4.51448845743685        3.15489476851240        1.49389348728975
H           -7.29450086895848        3.94800389235046       -0.43245900081749
H           -5.95665644548434        4.71131350845786        0.43424236266951
H           -5.94711397951874        4.63546988569066       -1.33255710341920
H           -6.33503407641489        2.12511971579275       -2.23297891495830
H           -5.21285847790250       -0.06702272220400       -2.23934688146051
H           -5.43466619863046       -2.38592067095548       -0.94156953762571
H           -5.23658124587476       -4.33275896402513       -2.44512228877873
H           -3.02075382417938       -4.99720555343280       -3.31721728369829
H           -1.02128917054275       -3.64570962127720       -2.74192880287355
H           -1.36675853094096        2.14753137718417       -0.45349856013472
H           -0.86481310311198        4.47134948134626        0.17808008017167
H            1.47305029553794        5.13968178195975        0.64819723781591
H            3.27183069533068        3.45694792683415        0.56160152854103
H            3.98501190565130        2.85936112105981       -1.83779996487491
H            6.19796574429806        2.62606523295415       -2.88816675017258
H            7.91257959847935        0.71888526093013       -3.67839629913619
H            8.54009832827220       -0.22691155897830       -2.32289150775319
H            8.65594560391189        1.53674501023296       -2.30788577793559
H            6.88980291370423       -1.05766666652483       -0.83699659368738
H            5.52065492207639       -2.59818648325422        0.95577441589868
H            4.94931283805734       -4.25716717256814        2.56176575377216
H            3.25486026616197       -4.70724758240743        2.34884227537958
H            3.75253389348417       -3.83044564632482        3.79301800198950
H            1.75219430169385       -2.38393741986014        2.95209235573039
H            1.21028654179735       -0.26391880856430        1.83070877880127
