  79
       -122.12659101
 C         -0.7336571332        0.4294973218        4.6030387624
 C         -1.4882238360        0.0447637952        3.3649496547
 C         -1.3475727685       -1.2507110939        2.8537716005
 C         -1.9900727723       -1.6636226640        1.7047581227
 C         -2.8005550170       -0.7446910840        1.0550721987
 C         -2.9845556540        0.5561068917        1.5695765884
 C         -2.3171218347        0.9474287596        2.7232445939
 C         -3.8803914123        1.2257247347        0.6675544437
 C         -4.4048920475        2.5109873053        0.6221651885
 C         -5.2322899053        2.8695522915       -0.4274007125
 C         -5.8102963268        4.2511329315       -0.5173200623
 C         -5.5229372527        1.9366739381       -1.4289840292
 C         -5.0148063484        0.6529553703       -1.4101501347
 C         -4.1955118028        0.2980068505       -0.3497402937
 N         -3.5411473513       -0.8929963587       -0.1022616694
 C         -3.4311381428       -1.9693976077       -0.9939903312
 C         -4.5608886594       -2.7008268841       -1.3405810055
 C         -4.4567077075       -3.7957866236       -2.1787895891
 C         -3.2176821182       -4.1858150779       -2.6666928778
 C         -2.0891335181       -3.4571492660       -2.3481485406
 C         -2.1846632479       -2.3313002409       -1.5314697287
 C         -0.9978060027       -1.5386880627       -1.2916306297
 N          0.2407156775       -1.9005561714       -1.4685995913
 N          1.0115572745       -0.8600445959       -1.1337831735
 C          0.2209579853        0.1081385002       -0.7668109846
 C          0.5397429556        1.4459995285       -0.3254362880
 C         -0.4910072878        2.3857210393       -0.2573568984
 C         -0.2293206759        3.6957154971        0.0850036241
 C          1.0723321100        4.0899598582        0.3597176818
 C          2.0984995822        3.1661758735        0.3208194299
 C          1.8508461198        1.8340759163       -0.0044942042
 N          2.9028759500        0.9214946785        0.0165962188
 C          4.0969248434        1.0630010581       -0.6641966796
 C          4.4994606752        2.0499831687       -1.5508318719
 C          5.7538534791        1.9366034015       -2.1169318132
 C          6.6068391038        0.8662692689       -1.8297801031
 C          7.9578687263        0.8078314182       -2.4798822927
 C          6.1899330324       -0.1257806470       -0.9592792700
 C          4.9343217779       -0.0352349521       -0.3739755113
 C          4.2071276032       -0.8706399803        0.5412740319
 C          4.5161632653       -2.0521490748        1.2005962570
 C          3.5926930356       -2.6044981897        2.0706034913
 C          3.8795762588       -3.8962015400        2.7782987361
 C          2.3734635187       -1.9551956206        2.2846988207
 C          2.0407504041       -0.7790078100        1.6433410711
 C          2.9585378566       -0.2474373709        0.7508418221
 O         -1.0752699580       -0.2607986399       -0.8635234891
 H          0.3366585187        0.2837070729        4.4578046711
 H         -1.0423398957       -0.1900823810        5.4446556667
 H         -0.9103877064        1.4714412839        4.8575411793
 H         -0.7092639369       -1.9471250487        3.3773179699
 H         -1.8545268389       -2.6643056247        1.3200583424
 H         -2.4419509303        1.9488012912        3.1087197130
 H         -4.1605959015        3.2217221593        1.3982617565
 H         -6.8928794033        4.2062087118       -0.6287209933
 H         -5.5757206998        4.8290950258        0.3733510468
 H         -5.4081709823        4.7749095053       -1.3851666070
 H         -6.1647963400        2.2363225630       -2.2449945801
 H         -5.2425104845       -0.0474951637       -2.2001717217
 H         -5.5168514541       -2.4084013428       -0.9315674519
 H         -5.3423078844       -4.3554279943       -2.4395062878
 H         -3.1359487629       -5.0528392902       -3.3037248466
 H         -1.1172696544       -3.7260582213       -2.7306889237
 H         -1.4989473684        2.0773364640       -0.4894992445
 H         -1.0370399404        4.4098359133        0.1300125273
 H          1.2845065403        5.1159453037        0.6207016451
 H          3.1084850103        3.4600445543        0.5652660064
 H          3.8520264930        2.8773506976       -1.8011055162
 H          6.0899486706        2.6959830648       -2.8085911014
 H          7.8573874677        0.7823171049       -3.5644220406
 H          8.5036683207       -0.0767864957       -2.1621491214
 H          8.5440386025        1.6891474912       -2.2211728114
 H          6.8314360325       -0.9662870398       -0.7389886228
 H          5.4699235873       -2.5317727816        1.0363798249
 H          4.9439528645       -4.1190760389        2.7631786923
 H          3.3526431801       -4.7159369843        2.2878497598
 H          3.5435283120       -3.8546703023        3.8134188307
 H          1.6713196336       -2.3930406820        2.9796154400
 H          1.0945427602       -0.2939052751        1.8359970970
