  29
  -47.2227695728000        1.00000000000000      !
 C          0.5964550971        3.5299470103       -0.0002857844
 C          1.8008991705        2.8549797588       -0.0000081502
 C          1.8425059377        1.4577958576        0.0000695334
 C          3.0790154761        0.7481684857        0.0004171008
 C          3.1125026625       -0.6033953035       -0.0001341069
 C          1.9114803336       -1.3719052789       -0.0004428830
 C          1.9392261553       -2.7696822363       -0.0006500407
 C          0.7700070673       -3.5020620198        0.0003077997
 C         -0.4580821696       -2.8624224011        0.0006167120
 C         -0.5282549617       -1.4719841202       -0.0001208468
 C         -1.7410878271       -0.7322585328       -0.0002307108
 N         -3.0490910889       -1.1387378617       -0.0005457155
 C         -3.8038238520       -0.0064317058       -0.0002505116
 N         -3.0896377967        1.0790453770        0.0003903678
 C         -1.7895103334        0.6596235214        0.0004446203
 C         -0.5960331746        1.4402632549        0.0002793910
 C         -0.5984906449        2.8302071478       -0.0000223654
 C          0.6297605507        0.7248422663       -0.0000023765
 C          0.6653417212       -0.6988900438       -0.0001900664
 H          0.5857306700        4.6103018773       -0.0003306399
 H          2.7315247317        3.4049431036        0.0008449753
 H          3.9943959406        1.3233764058        0.0006594720
 H          4.0541095203       -1.1342577015       -0.0007349354
 H          2.8945279458       -3.2747785148       -0.0002152798
 H          0.8095612270       -4.5818382297        0.0030565190
 H         -1.3669246318       -3.4477654997        0.0025646516
 H         -3.3827774418       -2.0878213858       -0.0010233937
 H         -4.8759618485       -0.0273335565       -0.0004830698
 H         -1.5480519733        3.3421587767        0.0002356902
