  45
        -91.29408444
 C          0.2818761588        3.2333241628       -1.6818895381
 C         -0.4863463743        2.5831840655       -0.5884518068
 S         -2.0878175294        3.1736720903       -0.2551978548
 C         -2.3337637263        1.9669614295        0.9733316662
 C         -3.4673070065        1.7901168983        1.7509125902
 C         -3.4614946234        0.7834121620        2.6939950090
 C         -2.3297522860       -0.0082146401        2.8808103152
 C         -1.2021420059        0.1737716154        2.1112858182
 C         -1.2015958590        1.1500316562        1.1154506451
 C         -0.1567201368        1.5100399449        0.1892854084
 C          1.0469872720        0.6993421504        0.0754712865
 C          1.0711615480       -0.6512064656       -0.0297962255
 C         -0.0818075207       -1.5115113550       -0.2162380396
 C         -0.3321991669       -2.6610160560        0.4852083279
 C          0.5195624088       -3.3609068463        1.4809291736
 S         -1.9148157431       -3.2974435979        0.1684858034
 C         -2.2543933152       -2.0306572603       -0.9747204068
 C         -3.4154456055       -1.8692757121       -1.7139902468
 C         -3.4733646505       -0.8300625935       -2.6192420423
 C         -2.3718370841        0.0007480289       -2.8144859603
 C         -1.2193485858       -0.1626630108       -2.0781757937
 C         -1.1619043726       -1.1589314429       -1.1036955689
 C          2.4881732743       -1.1637203955        0.0563767462
 F          2.7416878938       -2.2249244854       -0.7368499526
 F          2.8374518588       -1.5524965448        1.3141453032
 C          3.3235365470        0.0879831603       -0.3191946507
 F          4.5824982652        0.0699326057        0.1378348846
 F          3.3910693766        0.2003208449       -1.6675330518
 C          2.4477468543        1.2405596678        0.2381230230
 F          2.7420357113        1.4497676247        1.5512989635
 F          2.7051620089        2.4141389178       -0.3735196259
 H         -0.4001987837        3.6329255876       -2.4293971362
 H          0.9652090548        2.5335751991       -2.1580093133
 H          0.8739730064        4.0601665624       -1.2885715061
 H         -4.3254232727        2.4299050798        1.6178190024
 H         -4.3350237698        0.6190627907        3.3058964172
 H         -2.3364701570       -0.7699667697        3.6455371507
 H         -0.3166364281       -0.4167173245        2.2850870965
 H          1.4125244127       -3.7644828292        1.0034836587
 H         -0.0314911474       -4.1834957993        1.9296087598
 H          0.8433645943       -2.6844646231        2.2709855871
 H         -4.2429032397       -2.5489811638       -1.5847639900
 H         -4.3689458543       -0.6763732113       -3.2012091090
 H         -2.4205589415        0.7782712704       -3.5616069938
 H         -0.3551975649        0.4524009731       -2.2674594562
