  60
  -95.3481317453000       0.351507313055011      !
 C          1.3079384811        1.9442832240       -1.7451506750
 C          0.2713748213        1.2323899106       -1.1939439152
 C          0.5138735322        0.1641547159       -0.2965131802
 C         -0.5893564509       -0.4953694954        0.3157690668
 C         -0.4692249488       -1.6062431132        1.1824672763
 N         -1.4954248176       -2.1580773160        1.7463801135
 C         -2.7366066159       -1.7002349987        1.5001609557
 C         -2.9043636316       -0.6877582208        0.5481692874
 N         -4.1729714354       -0.2371737302        0.2357391186
 C         -5.3242538737       -1.0045223574        0.1537732309
 C         -5.4800362801       -2.3821029207        0.2034938269
 C         -6.7585290495       -2.8939215293        0.0689774438
 C         -7.8573310107       -2.0627259707       -0.1247449560
 C         -7.7031122688       -0.6914145513       -0.2147573392
 C         -6.4306315154       -0.1565740783       -0.0822190819
 C         -5.9134347542        1.1851249966       -0.1564173664
 C         -6.4993523267        2.4221689186       -0.3786416907
 C         -5.6887616825        3.5426693466       -0.3983863044
 C         -4.3154503917        3.4394304153       -0.1959821781
 C         -3.7101676846        2.2164206782        0.0319613839
 C         -4.5179966909        1.0910026687        0.0385195708
 N         -1.8649575528       -0.1051996050       -0.0065481908
 C          1.8556616831       -0.1550616812       -0.0155388949
 C          2.8865041177        0.5633955363       -0.5862084634
 N          4.2176987033        0.2067281577       -0.2976912065
 C          4.7826104257       -1.0252473910       -0.5310636551
 C          4.2220223023       -2.1519579029       -1.1174527556
 C          5.0249242438       -3.2668488011       -1.2635591917
 C          6.3530080710       -3.2657958520       -0.8418942432
 C          6.9188334778       -2.1432946249       -0.2664076999
 C          6.1337995670       -1.0102724198       -0.1090995674
 C          6.3780988239        0.3054849449        0.4161506255
 C          7.4789374020        0.9193452898        0.9957298306
 C          7.3565761439        2.2273872767        1.4264088505
 C          6.1557173940        2.9210042678        1.2902374698
 C          5.0453709029        2.3328914799        0.7155434341
 C          5.1661092375        1.0227977963        0.2724777400
 C          2.6292067846        1.6291239566       -1.4513398898
 H          1.0969838558        2.7576958078       -2.4242374899
 H         -0.7528529309        1.4778333557       -1.4263361777
 H          0.4938774189       -2.0587044489        1.3616392977
 H         -3.5474653439       -2.0664303068        2.1033466136
 H         -4.6340928818       -3.0405568353        0.3244488382
 H         -6.9033122358       -3.9630184052        0.1098602552
 H         -8.8399763497       -2.4992272906       -0.2204464826
 H         -8.5514691995       -0.0479562257       -0.3905654242
 H         -7.5641169100        2.5040973165       -0.5352750644
 H         -6.1257728307        4.5147703762       -0.5711040830
 H         -3.7096064704        4.3328387211       -0.2134985537
 H         -2.6472433155        2.1345985485        0.1961299205
 H          2.1044818346       -0.9564813416        0.6628672583
 H          3.1963731437       -2.1501714350       -1.4545867162
 H          4.6159098473       -4.1574438027       -1.7171444886
 H          6.9483054662       -4.1568656827       -0.9742259198
 H          7.9509724075       -2.1433519358        0.0500136347
 H          8.4077169909        0.3817255966        1.1130882790
 H          8.2014936954        2.7214494260        1.8824022045
 H          6.0915126442        3.9391449319        1.6444897812
 H          4.1123010077        2.8670989035        0.6193485146
 H          3.4484837245        2.1729235246       -1.8946484731
  60
  -95.3474228876000       0.166022107107444      !
 C          1.2653209769        1.2011965346       -2.3063102477
 C          0.2498865895        0.9220527899       -1.4251773541
 C          0.5152994983        0.3118933724       -0.1772112936
 C         -0.5743814244        0.0053108041        0.6886560708
 C         -0.4393691253       -0.4684335227        2.0113348863
 N         -1.4629607789       -0.7347963072        2.7607622091
 C         -2.7142759929       -0.5604226502        2.2933123544
 C         -2.8861643669       -0.0125450149        1.0190925007
 N         -4.1557914907        0.1744444593        0.5042520420
 C         -4.5225223266       -0.1315631219       -0.7971960678
 C         -3.7370774805       -0.5764606499       -1.8482511774
 C         -4.3601622224       -0.8085754429       -3.0612555716
 C         -5.7296572406       -0.6164575563       -3.2212804893
 C         -6.5174431677       -0.1814837678       -2.1708332050
 C         -5.9131589775        0.0628067514       -0.9466073508
 C         -6.4026721339        0.5218797274        0.3274237861
 C         -7.6566676366        0.9010351912        0.7817288516
 C         -7.7813681624        1.3458934028        2.0852364927
 C         -6.6718571383        1.4333102327        2.9205103149
 C         -5.4115397163        1.0591769337        2.4892028402
 C         -5.2860928339        0.5805541998        1.1933266355
 N         -1.8509764438        0.2590498284        0.2553684791
 C          1.8553508283        0.0152956190        0.1320489252
 C          2.8652009029        0.2902482271       -0.7705369372
 N          4.1922407041       -0.0435716548       -0.4462001422
 C          4.6256695747       -1.2793971246       -0.0212119420
 C          3.9068408817       -2.4542644744        0.1567042225
 C          4.5967787495       -3.5740326859        0.5799090904
 C          5.9696676306       -3.5369453185        0.8137192201
 C          6.6946995039       -2.3767998246        0.6162458118
 C          6.0243411217       -1.2385286977        0.1925434790
 C          6.4429328419        0.0999278453       -0.1219287392
 C          7.6679246058        0.7503979503       -0.0971794476
 C          7.7155355866        2.0852741267       -0.4526298557
 C          6.5596013558        2.7733816048       -0.8149862603
 C          5.3280778681        2.1478749910       -0.8474194784
 C          5.2772545855        0.8009436914       -0.5135696077
 C          2.5837027809        0.8867398784       -2.0011701324
 H          1.0377251735        1.6619848600       -3.2567031947
 H         -0.7735016945        1.1641769165       -1.6649802924
 H          0.5377949258       -0.5756520099        2.4566218164
 H         -3.5363479143       -0.9304268540        2.8788799757
 H         -2.6769914577       -0.7300356777       -1.7201900027
 H         -3.7717098055       -1.1505569770       -3.8992984127
 H         -6.1815614823       -0.8134981094       -4.1817941898
 H         -7.5789755830       -0.0328906004       -2.2976843672
 H         -8.5128852759        0.8564652602        0.1259163972
 H         -8.7489239545        1.6454933403        2.4586520861
 H         -6.7941010162        1.8072635627        3.9258523072
 H         -4.5550456324        1.1565343358        3.1379515396
 H          2.1173945801       -0.4226145676        1.0827600074
 H          2.8462801622       -2.4941118605       -0.0397515119
 H          4.0604427693       -4.4993008291        0.7294091639
 H          6.4723719480       -4.4328161723        1.1459971572
 H          7.7608845055       -2.3540511366        0.7837478645
 H          8.5625030691        0.2225805928        0.1970044981
 H          8.6596450795        2.6089429002       -0.4420197349
 H          6.6274954404        3.8196739805       -1.0733600594
 H          4.4336515261        2.6894092374       -1.1145412182
 H          3.3798153587        1.0763257985       -2.7035920568
  60
  -95.3473690360000       0.156825774015844      !
 C          1.1531844297       -0.5035374345       -2.6107179605
 C          0.1787099021       -0.1738891269       -1.7014122134
 C          0.5019303737        0.0767903895       -0.3462051553
 C         -0.5430386418        0.3961690081        0.5675158108
 C         -0.3329143261        0.8613526700        1.8848139559
 N         -1.3121577120        1.1606286775        2.6786157469
 C         -2.5874038880        1.0463786748        2.2607204617
 C         -2.8305966090        0.6894820390        0.9302144002
 N         -4.1276076464        0.5774220281        0.4647128140
 C         -4.5818349549       -0.4473539468       -0.3513015173
 C         -3.8727967461       -1.4863250355       -0.9321239034
 C         -4.5773148599       -2.3874913378       -1.7100402572
 C         -5.9516583997       -2.2662747351       -1.8956009751
 C         -6.6630080977       -1.2349918481       -1.3096262771
 C         -5.9765378009       -0.3170354528       -0.5289114474
 C         -6.3767332447        0.8542126002        0.2068520288
 C         -7.5943435482        1.4936448790        0.3835189462
 C         -7.6299508970        2.6521765504        1.1378838651
 C         -6.4680321107        3.1806681354        1.6917144949
 C         -5.2424419901        2.5592398762        1.5290982653
 C         -5.2060641316        1.3784357270        0.8020184569
 N         -1.8413479815        0.3739471457        0.1243047466
 C          1.8501017777       -0.0454052872        0.0373855884
 C          2.8205393047       -0.3717872637       -0.8898600815
 N          4.1629962021       -0.4723439227       -0.4883720688
 C          5.0038966766       -1.5307221561       -0.7528230110
 C          4.7348376843       -2.7333187112       -1.3928100125
 C          5.7663227160       -3.6451333534       -1.5109184339
 C          7.0343965461       -3.3791958045       -0.9986720472
 C          7.3016783263       -2.1945788900       -0.3385244292
 C          6.2822688789       -1.2626711885       -0.2079535240
 C          6.1946366604        0.0300936347        0.4139611359
 C          7.1037100902        0.8282664153        1.0929983249
 C          6.6840223457        2.0599169950        1.5590680839
 C          5.3814191621        2.5034447063        1.3415052188
 C          4.4581208057        1.7272131817        0.6673435441
 C          4.8666674048        0.4788137990        0.2168843295
 C          2.4851450697       -0.5981925208       -2.2282161531
 H          0.8853568643       -0.6806681466       -3.6422908342
 H         -0.8549472001       -0.0965668989       -1.9997183358
 H          0.6679602374        1.0389070001        2.2476879222
 H         -3.3750595523        1.1469170284        2.9853673968
 H         -2.8087302033       -1.5808070280       -0.7827984351
 H         -4.0500539352       -3.2048015983       -2.1785683386
 H         -6.4681455816       -2.9921768800       -2.5055657440
 H         -7.7284970515       -1.1424755764       -1.4555028068
 H         -8.4912399172        1.0964563741       -0.0667853814
 H         -8.5679687336        3.1644588978        1.2893436852
 H         -6.5209586817        4.0993691524        2.2562491387
 H         -4.3451794321        2.9936807818        1.9415603179
 H          2.1418545022        0.0847919174        1.0680176755
 H          3.7500740525       -2.9522731497       -1.7764150724
 H          5.5844321386       -4.5867216579       -2.0076310133
 H          7.8150303572       -4.1161254667       -1.1138186756
 H          8.2806209086       -1.9965949918        0.0711055591
 H          8.1177814705        0.4924563119        1.2487129312
 H          7.3755907408        2.6951097977        2.0922379632
 H          5.0877014148        3.4770282043        1.7050340166
 H          3.4560404242        2.0850426700        0.4857400750
 H          3.2582277702       -0.8187389579       -2.9470884672
  60
  -95.3473631567000       0.155853119892479      !
 C          1.1779048388       -0.2540047945       -2.6948670974
 C          0.2026884389        0.0601820604       -1.7808062021
 C          0.5241262025        0.2733953815       -0.4193606963
 C         -0.5203936214        0.5783750075        0.5008791383
 C         -0.3091982899        1.0810384177        1.8028537640
 N         -1.2887901567        1.3742843416        2.5998328881
 C         -2.5649265628        1.2041801746        2.2015785181
 C         -2.8114911067        0.7931637734        0.8882778143
 N         -4.1075136254        0.5955240786        0.4484529185
 C         -4.5166831371       -0.4953919862       -0.3029728286
 C         -3.7602431794       -1.5265296921       -0.8361088863
 C         -4.4257795301       -2.5082411244       -1.5480834301
 C         -5.8070786466       -2.4713504039       -1.7164427352
 C         -6.5648938495       -1.4460698536       -1.1799434861
 C         -5.9185769906       -0.4487939073       -0.4649282683
 C         -6.3706214183        0.7397342496        0.2108775164
 C         -7.6169165474        1.3266287052        0.3684991954
 C         -7.7026840540        2.5220769762        1.0584375507
 C         -6.5636369511        3.1367897478        1.5693637350
 C         -5.3100364137        2.5691377053        1.4251056543
 C         -5.2219973938        1.3552437577        0.7599163942
 N         -1.8215597874        0.4976488555        0.0751769840
 C          1.8664381513        0.1179976125       -0.0303613708
 C          2.8346600587       -0.2121568050       -0.9588048723
 N          4.1635934565       -0.3963216931       -0.5424701938
 C          4.9283826360       -1.5139101152       -0.7970648093
 C          4.6015947049       -2.6655349332       -1.5004796218
 C          5.5579172881       -3.6587549926       -1.5907292334
 C          6.8071990266       -3.5218613392       -0.9897149900
 C          7.1301337815       -2.3876105532       -0.2687902538
 C          6.1871801139       -1.3751242416       -0.1657273653
 C          6.1673007170       -0.1026307570        0.5023393997
 C          7.0921296822        0.5890719483        1.2710203575
 C          6.7452197822        1.8332258334        1.7630657124
 C          5.5007763424        2.3941414021        1.4837514998
 C          4.5627527564        1.7248600404        0.7211681268
 C          4.8959365505        0.4637562691        0.2445218319
 C          2.5051003698       -0.3853525061       -2.3063438953
 H          0.9137499008       -0.3953331543       -3.7328703185
 H         -0.8291098469        0.1561066780       -2.0801769150
 H          0.6905801419        1.2981959481        2.1472708318
 H         -3.3469988702        1.3024339253        2.9327410992
 H         -2.6902533846       -1.5544484106       -0.7016507599
 H         -3.8614168122       -3.3220627401       -1.9779428130
 H         -6.2920629688       -3.2584354550       -2.2741940487
 H         -7.6356426744       -1.4192663759       -1.3130332793
 H         -8.4973605515        0.8612419424       -0.0474219437
 H         -8.6636792235        2.9951378803        1.1927277761
 H         -6.6576117012        4.0805211864        2.0851702241
 H         -4.4311173228        3.0669041274        1.8044535285
 H          2.1510652005        0.2114767622        1.0064172368
 H          3.6286865897       -2.7860239657       -1.9516164190
 H          5.3297808324       -4.5631622695       -2.1350110298
 H          7.5280562408       -4.3201497337       -1.0839580593
 H          8.0934961226       -2.2895535771        0.2083838986
 H          8.0624695107        0.1624997200        1.4756034219
 H          7.4497046823        2.3863293556        2.3660998329
 H          5.2656512207        3.3748920721        1.8698781649
 H          3.6063452523        2.1711646870        0.4942797566
 H          3.2785052277       -0.6012950704       -3.0262506325
  60
  -95.3470693429000       0.114205764942623      !
 C          1.3005548968        2.5203429368       -0.5863712953
 C          0.2650294885        1.6320672413       -0.4304928934
 C          0.5109594655        0.2601127058       -0.1908775484
 C         -0.5964010413       -0.6295181338       -0.0683297242
 C         -0.4842974637       -2.0231742046        0.1247447837
 N         -1.5202276718       -2.7948084520        0.2319213924
 C         -2.7628515063       -2.2768625980        0.1852262658
 C         -2.9117967495       -0.8910972991        0.0827498307
 N         -4.1747179879       -0.3272707737        0.0642357491
 C         -5.2661659973       -0.7153879237        0.8233219320
 C         -5.3498665909       -1.6477167487        1.8470406675
 C         -6.5746417382       -1.8177460039        2.4677945177
 C         -7.6890825079       -1.0740218192        2.0921812965
 C         -7.6032050340       -0.1193130981        1.0955066043
 C         -6.3854305466        0.0682813136        0.4593027140
 C         -5.9375808599        0.9764555301       -0.5642809408
 C         -6.5612360081        1.9796150718       -1.2908894863
 C         -5.8140878553        2.6885505435       -2.2140789751
 C         -4.4664636204        2.4052793605       -2.4180370430
 C         -3.8247725660        1.4065605972       -1.7078843131
 C         -4.5677422816        0.7038737557       -0.7731481798
 N         -1.8650640075       -0.1070939417       -0.0559181356
 C          1.8518123893       -0.1516603688       -0.0829148860
 C          2.8834905742        0.7562358360       -0.2289485343
 N          4.2134243822        0.3227509705       -0.0844177975
 C          4.7906104075       -0.7502356718       -0.7247127431
 C          4.2542531165       -1.5998555918       -1.6835653037
 C          5.0650455314       -2.6009222863       -2.1834162593
 C          6.3809641376       -2.7542485056       -1.7522957163
 C          6.9277750662       -1.8980384561       -0.8148243041
 C          6.1333510018       -0.8857276220       -0.2968536193
 C          6.3625228282        0.1647427048        0.6569556173
 C          7.4554050890        0.5386040270        1.4253702132
 C          7.3238197105        1.6138036353        2.2841342753
 C          6.1179714471        2.3031634786        2.3917447142
 C          5.0155545644        1.9499479347        1.6374709733
 C          5.1483606066        0.8851772944        0.7559354173
 C          2.6219073600        2.1015079664       -0.4959116032
 H          1.0877845192        3.5605958347       -0.7863416665
 H         -0.7599549162        1.9621190352       -0.4901521519
 H          0.4855879398       -2.4863453412        0.2205823902
 H         -3.5985577076       -2.9518844475        0.1458890418
 H         -4.4876379330       -2.2126901652        2.1652871173
 H         -6.6641393296       -2.5402583340        3.2649386700
 H         -8.6282769366       -1.2369296228        2.5988147623
 H         -8.4611091467        0.4752847683        0.8212234149
 H         -7.6060733167        2.2008338447       -1.1348664046
 H         -6.2815444296        3.4732902017       -2.7897990723
 H         -3.9110190075        2.9736530111       -3.1488236856
 H         -2.7827614777        1.1799022308       -1.8696487002
 H          2.0971311243       -1.1749457998        0.1553223916
 H          3.2410007497       -1.4751899884       -2.0342429937
 H          4.6716839754       -3.2766025287       -2.9283356093
 H          6.9820968386       -3.5502387076       -2.1656337355
 H          7.9515713026       -2.0104164227       -0.4914678101
 H          8.3857725336       -0.0043808008        1.3553309165
 H          8.1629660752        1.9213165829        2.8899827689
 H          6.0417612293        3.1289872427        3.0833871362
 H          4.0790482018        2.4767435892        1.7374954616
 H          3.4379733602        2.7919116527       -0.6390081717
  60
  -95.3462116381000       4.608018274420519E-002 !
 C          1.2233800964       -0.0390118982       -2.7653826047
 C          0.2459589557        0.3544434518       -1.8841763794
 C          0.5433459899        0.5595845075       -0.5173467027
 C         -0.5064112930        0.9142544038        0.3813495194
 C         -0.3017136303        1.4895473215        1.6515469469
 N         -1.2860985601        1.7814436470        2.4454301538
 C         -2.5563059927        1.5141100573        2.0803866910
 C         -2.8003615479        1.0292268088        0.7928780702
 N         -4.0789366829        0.6901145300        0.3923808693
 C         -4.3728537788       -0.4585039689       -0.3303642975
 C         -3.5118017789       -1.3809610020       -0.9027295243
 C         -4.0717559839       -2.4542040775       -1.5719909595
 C         -5.4515917061       -2.6144336972       -1.6585937905
 C         -6.3134701676       -1.6988654231       -1.0824463849
 C         -5.7737449849       -0.6114067702       -0.4117154184
 C         -6.3502085454        0.5090606841        0.2849587018
 C         -7.6572259267        0.9089980401        0.5166347716
 C         -7.8757951118        2.0864495173        1.2081386668
 C         -6.8098993257        2.8673345600        1.6440830189
 C         -5.4973593754        2.4873598236        1.4243482189
 C         -5.2714929460        1.2895037703        0.7622738788
 N         -1.8056424250        0.7744542091       -0.0310906642
 C          1.8592846760        0.3213247186       -0.0849691815
 C          2.8259173711       -0.0991865377       -0.9780667277
 N          4.1204848149       -0.3933271040       -0.5194598535
 C          4.7955097303       -1.5721178378       -0.7508761297
 C          4.3833920137       -2.7044825292       -1.4407886096
 C          5.2571561132       -3.7728477639       -1.5064677877
 C          6.5082114823       -3.7274953761       -0.8952463912
 C          6.9138397245       -2.6129664315       -0.1855803717
 C          6.0537408730       -1.5271067384       -0.1050684067
 C          6.1274603096       -0.2496702463        0.5495363882
 C          7.0940534991        0.3736375542        1.3252757072
 C          6.8399041821        1.6452596498        1.8034533586
 C          5.6470844801        2.2999077097        1.5039518699
 C          4.6695328318        1.7005729851        0.7329329468
 C          4.9089269705        0.4138632743        0.2691614941
 C          2.5235114617       -0.2659969458       -2.3329146548
 H          0.9816514631       -0.1724880327       -3.8098321448
 H         -0.7671138203        0.5191326312       -2.2160763602
 H          0.6923474531        1.7667787856        1.9689390604
 H         -3.3260352907        1.5843241051        2.8276043242
 H         -2.4425327312       -1.2587325663       -0.8294286660
 H         -3.4228887987       -3.1852318388       -2.0304057950
 H         -5.8519257410       -3.4695050016       -2.1823051202
 H         -7.3832234116       -1.8240265047       -1.1520522491
 H         -8.4828720651        0.3144801355        0.1565166406
 H         -8.8858932323        2.4145915212        1.4013795607
 H         -7.0096422709        3.7940163400        2.1606846864
 H         -4.6813373548        3.1165333405        1.7439886364
 H          2.1133024128        0.4067388416        0.9606065286
 H          3.4082805797       -2.7530112564       -1.9007329194
 H          4.9617257889       -4.6644784710       -2.0393601723
 H          7.1636692082       -4.5821496080       -0.9714244263
 H          7.8769599634       -2.5860876376        0.3012875433
 H          8.0249172510       -0.1264014829        1.5462570529
 H          7.5778872258        2.1460696558        2.4119916206
 H          5.4843320506        3.2987769699        1.8807862285
 H          3.7544313518        2.2189824295        0.4897565672
 H          3.2985784777       -0.5561637911       -3.0245181070
  60
  -95.3447199588000       9.505738242393825E-003 !
 C          1.2865730396        1.6589527491       -1.9453278699
 C          0.2545724398        1.0050403984       -1.3200650576
 C          0.4996925161        0.0495977308       -0.3045545808
 C         -0.6062741349       -0.5373846683        0.3736319671
 C         -0.4979507331       -1.5425786115        1.3619745948
 N         -1.5316098647       -2.0182123388        1.9793409273
 C         -2.7684433462       -1.5780500168        1.6833149473
 C         -2.9252076584       -0.6717346893        0.6281867647
 N         -4.1831207526       -0.2228732367        0.2734784486
 C         -5.3658488679       -0.9454220098        0.3037910053
 C         -5.5781800870       -2.2986223182        0.5239169629
 C         -6.8796840017       -2.7661952047        0.4741229352
 C         -7.9474354476       -1.9180676717        0.1978481768
 C         -7.7380536566       -0.5765299527       -0.0636049158
 C         -6.4417520632       -0.0864356921       -0.0182887504
 C         -5.8731927952        1.2127817916       -0.2664945644
 C         -6.4143991906        2.4353264799       -0.6348563055
 C         -5.5612088815        3.5101925994       -0.8068302980
 C         -4.1897641291        3.3764539415       -0.6100729971
 C         -3.6292960507        2.1679499885       -0.2368926989
 C         -4.4795604595        1.0854071611       -0.0801265978
 N         -1.8778925616       -0.1749022385        0.0086459416
 C          1.8433897501       -0.2293220933        0.0134496839
 C          2.8677894274        0.4336771877       -0.6287948916
 N          4.2102403229        0.1314154639       -0.2994653170
 C          4.9077325752       -0.9706998234       -0.7274931944
 C          4.4808464554       -2.0178188801       -1.5325560632
 C          5.3984228912       -3.0037761550       -1.8400751851
 C          6.7061506770       -2.9537412812       -1.3606054343
 C          7.1351154623       -1.9128812383       -0.5578030659
 C          6.2339085002       -0.9086711411       -0.2350200015
 C          6.3206367501        0.3017505110        0.5358580202
 C          7.3302455268        0.9068995558        1.2700993118
 C          7.0569997637        2.1010127766        1.9114533800
 C          5.7978665874        2.6928476310        1.8291114937
 C          4.7751535168        2.1114085364        1.1048077597
 C          5.0457031035        0.9132243755        0.4582490905
 C          2.6085156344        1.3928440975       -1.6075419007
 H          1.0721296329        2.3888897277       -2.7123591219
 H         -0.7702765639        1.2108932363       -1.5859106042
 H          0.4612685874       -1.9775747311        1.5968075182
 H         -3.5813595736       -1.8655659414        2.3250089397
 H         -4.7589346245       -2.9752022865        0.7104037695
 H         -7.0681070390       -3.8148653455        0.6482174332
 H         -8.9490416790       -2.3198328152        0.1722643823
 H         -8.5615780112        0.0779475289       -0.3048103163
 H         -7.4778915612        2.5402565766       -0.7861562622
 H         -5.9622772593        4.4702793300       -1.0950403955
 H         -3.5493311676        4.2347530311       -0.7470038795
 H         -2.5679569098        2.0654023157       -0.0747003924
 H          2.0956249903       -0.9585969620        0.7681093636
 H          3.4683900701       -2.0508865474       -1.9063378206
 H          5.0980977463       -3.8299274999       -2.4673623945
 H          7.3940130916       -3.7428960957       -1.6253488219
 H          8.1501164261       -1.8770826526       -0.1916699974
 H          8.3065005780        0.4512025153        1.3394831281
 H          7.8295890283        2.5861686657        2.4891420209
 H          5.6186598620        3.6245761493        2.3447668195
 H          3.7975426216        2.5654031761        1.0416899050
 H          3.4273041600        1.8991250463       -2.0943495098
