  60
        -95.70241362
 C          1.3035575091       -1.8458416253       -1.8146181584
 C          0.2628564181       -1.1489997611       -1.2520719748
 C          0.5020857101       -0.0909918879       -0.3425190354
 C         -0.6075070467        0.5921842980        0.2327401778
 C         -0.5045306495        1.7824234525        0.9867621187
 N         -1.5419499354        2.3846897978        1.4762940333
 C         -2.7777176201        1.8913569576        1.2678635174
 C         -2.9258664242        0.7742940787        0.4390168823
 N         -4.1816736091        0.2512121018        0.1923990327
 C         -4.4794732000       -1.1029091268        0.1861751119
 C         -3.6303819453       -2.1887332057        0.3261067377
 C         -4.1926555827       -3.4519872236        0.2856348526
 C         -5.5635830736       -3.6308409186        0.1227987984
 C         -6.4142507562       -2.5481996484       -0.0082794468
 C         -5.8719855082       -1.2721733335        0.0249816705
 C         -6.4362731110        0.0479536328       -0.0853386906
 C         -7.7270777512        0.5146700107       -0.2819573404
 C         -7.9288254115        1.8789178919       -0.3851830547
 C         -6.8599013811        2.7669743724       -0.3155835387
 C         -5.5638542649        2.3238746562       -0.1190821965
 C         -5.3597363142        0.9587894408        0.0192834494
 N         -1.8761265677        0.1530742461       -0.0506744889
 C          1.8396101656        0.2042935686       -0.0208443444
 C          2.8766018518       -0.5013519022       -0.5994387040
 N          4.2052029161       -0.1788656747       -0.2764578493
 C          5.1753669415       -1.0723033635        0.1207363777
 C          5.0757034182       -2.4374829667        0.3543309215
 C          6.2119676516       -3.1045024736        0.7706306704
 C          7.4189982168       -2.4355258964        0.9621455074
 C          7.5182658574       -1.0724370122        0.7555388978
 C          6.3911202096       -0.3806431046        0.3364205078
 C          6.1268563091        1.0025184930        0.0487979708
 C          6.9080943345        2.1488168937        0.0647013308
 C          6.3275747071        3.3503135210       -0.2954719474
 C          4.9907517512        3.4136887395       -0.6824001723
 C          4.1926071027        2.2859203531       -0.7071546654
 C          4.7634673774        1.0794369404       -0.3239560643
 C          2.6217671913       -1.5314824787       -1.5098429542
 H          1.0982077827       -2.6429962481       -2.5143505965
 H         -0.7605326877       -1.3908101668       -1.4921026823
 H          0.4535866633        2.2598570686        1.1246798645
 H         -3.5987964171        2.3179715848        1.8150857350
 H         -2.5691009265       -2.0473183382        0.4570532314
 H         -3.5545397878       -4.3167957532        0.3877776309
 H         -5.9665242864       -4.6323021345        0.1012636066
 H         -7.4768410345       -2.6892312973       -0.1352357685
 H         -8.5525995742       -0.1762217236       -0.3603035190
 H         -8.9261543231        2.2632557754       -0.5364119392
 H         -7.0430982542        3.8254583391       -0.4231137316
 H         -4.7409521682        3.0210950412       -0.0933952854
 H          2.0743103399        0.9668105816        0.7056245788
 H          4.1392806468       -2.9581439658        0.2244162735
 H          6.1623157459       -4.1673522001        0.9557826380
 H          8.2854799849       -2.9927969541        1.2852113429
 H          8.4504122476       -0.5531298526        0.9190812837
 H          7.9482007743        2.0986288702        0.3493344011
 H          6.9179348578        4.2544226091       -0.2871948078
 H          4.5697901757        4.3649354458       -0.9725883617
 H          3.1627689604        2.3390934903       -1.0262046174
 H          3.4424255067       -2.0505919547       -1.9790127295
  60
        -95.70206848
 C          1.2954373947       -1.6950723506       -2.0403084571
 C          0.2575802606       -1.0078714703       -1.4607610078
 C          0.5023117215        0.0222673168       -0.5220189704
 C         -0.6034258720        0.6978761979        0.0710852381
 C         -0.5005761983        1.9069058892        0.7922516879
 N         -1.5360826504        2.5061826800        1.2916141185
 C         -2.7676401580        1.9820742510        1.1346346355
 C         -2.9161415349        0.8341778603        0.3505628836
 N         -4.1626487938        0.2608931577        0.1780924218
 C         -4.4112334456       -1.1006372961        0.2593247900
 C         -3.5182883629       -2.1468150192        0.4261830681
 C         -4.0357089608       -3.4284282092        0.4840387300
 C         -5.4045908122       -3.6626318980        0.3891485872
 C         -6.2983199100       -2.6191865547        0.2285694848
 C         -5.8019391933       -1.3257257853        0.1645618378
 C         -6.4168022363       -0.0337188620        0.0023325202
 C         -7.7291934837        0.3781681934       -0.1723658254
 C         -7.9819794676        1.7269379166       -0.3437923340
 C         -6.9436585623        2.6532008199       -0.3602966267
 C         -5.6267990265        2.2654060372       -0.1869480997
 C         -5.3704375145        0.9173793289        0.0152124942
 N         -1.8695286165        0.2245550795       -0.1606978209
 C          1.8387996187        0.2923319232       -0.1783104908
 C          2.8721415937       -0.4169650793       -0.7593139864
 N          4.1978197764       -0.1545400810       -0.3758746529
 C          5.0994312852       -1.0990246592        0.0643188922
 C          4.9381296562       -2.4696278541        0.2168021318
 C          6.0090199502       -3.1943130167        0.7038435626
 C          7.2106558547       -2.5766339990        1.0432645986
 C          7.3695869071       -1.2095451712        0.9153848338
 C          6.3091977801       -0.4603746048        0.4262729129
 C          6.1133489293        0.9434678024        0.1879080987
 C          6.9207006622        2.0614739217        0.3391600703
 C          6.4100653828        3.2981985803       -0.0074488302
 C          5.1182433066        3.4251416786       -0.5137721978
 C          4.2948997766        2.3269345626       -0.6731640160
 C          4.7933935558        1.0845980262       -0.3034482664
 C          2.6140669480       -1.4081339626       -1.7108650780
 H          1.0873747466       -2.4659972295       -2.7680357337
 H         -0.7669139621       -1.2341932082       -1.7110051229
 H          0.4530820394        2.4031683175        0.8902159179
 H         -3.5814913156        2.4110788776        1.6909537320
 H         -2.4581405535       -1.9624279279        0.5025023085
 H         -3.3630296952       -4.2634351456        0.6099593813
 H         -5.7716715244       -4.6765685681        0.4437688936
 H         -7.3591363147       -2.8037109125        0.1540464522
 H         -8.5321971991       -0.3428346674       -0.1822037674
 H         -8.9968507130        2.0684082440       -0.4807834658
 H         -7.1682464998        3.6974212664       -0.5173970197
 H         -4.8278742823        2.9895550859       -0.2257088707
 H          2.0729424438        1.0272485059        0.5764977919
 H          4.0033824710       -2.9513338860       -0.0256833646
 H          5.9103312652       -4.2624373747        0.8287929046
 H          8.0247455276       -3.1778179866        1.4195850173
 H          8.2966156690       -0.7308322180        1.1925651461
 H          7.9271642683        1.9629843909        0.7169275926
 H          7.0213022240        4.1810542975        0.1058116566
 H          4.7538179424        4.4034532123       -0.7900875938
 H          3.3006963372        2.4290657056       -1.0812206723
 H          3.4329958478       -1.9239489413       -2.1866195739
  60
        -95.70198169
 C          1.2566974150       -0.7677049847       -2.4888386672
 C          0.2303868091       -0.4081889078       -1.6504723201
 C          0.4910527380        0.1302351807       -0.3689456565
 C         -0.6056711475        0.4526282277        0.4821613400
 C         -0.4914697566        1.1240638524        1.7183949349
 N         -1.5205875205        1.3942658258        2.4588257824
 C         -2.7581446384        1.0395061360        2.0622110498
 C         -2.9185412403        0.4495910654        0.8053797598
 N         -4.1731661599        0.0664937388        0.3681938217
 C         -4.4437561718       -1.1341018005       -0.2699681678
 C         -3.5679952572       -2.1261853199       -0.6803184705
 C         -4.1049286651       -3.2382303212       -1.3036562308
 C         -5.4769249966       -3.3666290230       -1.5015797038
 C         -6.3540283111       -2.3818651955       -1.0842329169
 C         -5.8375129649       -1.2553205362       -0.4615972209
 C         -6.4315031271       -0.0594641028        0.0775034592
 C         -7.7371411257        0.4014899657        0.1515807314
 C         -7.9685563279        1.6465714210        0.7072788455
 C         -6.9153996093        2.4329465893        1.1642403248
 C         -5.6051005793        1.9929343519        1.1017299225
 C         -5.3700733343        0.7309781049        0.5760490265
 N         -1.8776896897        0.1735306449        0.0510118987
 C          1.8364293420        0.2957437975        0.0077748879
 C          2.8586556300       -0.0829457400       -0.8417573358
 N          4.1939306503        0.0674657833       -0.4269300249
 C          4.7226369883       -0.4016543396        0.7546519936
 C          4.1122442653       -1.1289483757        1.7681342332
 C          4.8848748575       -1.4957698226        2.8532524125
 C          6.2345335091       -1.1594352853        2.9317835046
 C          6.8534793136       -0.4557623459        1.9157347771
 C          6.0985576405       -0.0749510986        0.8158978587
 C          6.4015106053        0.6306432131       -0.3989823371
 C          7.5554946439        1.2080205650       -0.9081826305
 C          7.4920233024        1.8433937840       -2.1340612810
 C          6.2946474200        1.9191856651       -2.8422452953
 C          5.1321493297        1.3521736752       -2.3563892139
 C          5.1946583551        0.6925015716       -1.1360663035
 C          2.5824543834       -0.6193695542       -2.1009093945
 H          1.0332397080       -1.1829221690       -3.4609671707
 H         -0.7983909626       -0.5268170891       -1.9521290336
 H          0.4681849857        1.4795772324        2.0608841307
 H         -3.5688286226        1.1401453663        2.7609656684
 H         -2.5057130690       -2.0269588883       -0.5207001844
 H         -3.4454687254       -4.0245647340       -1.6388191753
 H         -5.8595803499       -4.2518418650       -1.9869683079
 H         -7.4173290893       -2.4836774746       -1.2393068680
 H         -8.5515153286       -0.1983286718       -0.2255099204
 H         -8.9777717186        2.0238069695        0.7746670864
 H         -7.1227633542        3.4112081529        1.5710594130
 H         -4.7951800150        2.6228673011        1.4351195046
 H          2.0919156746        0.7299851270        0.9619473162
 H          3.0714916913       -1.4079209248        1.7050461509
 H          4.4332974960       -2.0586179590        3.6566250250
 H          6.8039985108       -1.4625573426        3.7975383632
 H          7.9029041634       -0.2089812389        1.9716942973
 H          8.4810094952        1.1626481296       -0.3543147890
 H          8.3796763911        2.2970863395       -2.5486928678
 H          6.2742907419        2.4352070004       -3.7906133406
 H          4.2041238439        1.4266692338       -2.9021281209
 H          3.3904852490       -0.9293483097       -2.7444417627
  60
        -95.70181872
 C          1.1332555028        0.6212988407       -2.6203455726
 C          0.1683575633        0.2750135550       -1.7070309117
 C          0.5016603213        0.0092337305       -0.3566293653
 C         -0.5379342009       -0.2666392895        0.5761704189
 C         -0.3198041378       -0.5989557163        1.9332343919
 N         -1.2939212952       -0.8105478812        2.7590245381
 C         -2.5704109449       -0.7461172904        2.3380749083
 C         -2.8208505947       -0.5485077697        0.9750744543
 N         -4.1211646120       -0.5332139610        0.5071489163
 C         -5.1691499444       -1.3211028458        0.9565389735
 C         -5.1619332282       -2.3915683802        1.8388767562
 C         -6.3644914596       -3.0255419188        2.0968069002
 C         -7.5460761409       -2.6191622445        1.4848482610
 C         -7.5525629188       -1.5782774329        0.5744102406
 C         -6.3586296256       -0.9281229698        0.3011878868
 C         -6.0020601599        0.1417255602       -0.5940420400
 C         -6.7219033231        0.9099002332       -1.4966461665
 C         -6.0500279976        1.8734789662       -2.2267611051
 C         -4.6829030254        2.0765664827       -2.0614299835
 C         -3.9457316653        1.3251662209       -1.1636247305
 C         -4.6137797957        0.3500391946       -0.4411045665
 N         -1.8376316396       -0.3056396457        0.1373712975
 C          1.8601737187        0.0866451501        0.0034955021
 C          2.8193574657        0.4255950283       -0.9290066021
 N          4.1715221987        0.4769183167       -0.5397132598
 C          4.8872954972       -0.5664497768       -0.0008224423
 C          4.4873211401       -1.8736875565        0.2415361760
 C          5.4219851826       -2.7441125988        0.7685501290
 C          6.7234833098       -2.3312246726        1.0464624802
 C          7.1295699065       -1.0333008344        0.7977869013
 C          6.2100527867       -0.1397282698        0.2679003614
 C          6.2760803144        1.2417686062       -0.1243930008
 C          7.2732765302        2.2053653162       -0.0836101546
 C          6.9800325734        3.4803040260       -0.5307899880
 C          5.7113405460        3.8015568508       -1.0092521855
 C          4.7014652366        2.8600405738       -1.0613883153
 C          4.9938150887        1.5757761489       -0.6227234483
 C          2.4704378765        0.7072845706       -2.2516318288
 H          0.8532006288        0.8231802236       -3.6441199434
 H         -0.8681648560        0.2064369621       -1.9972199223
 H          0.6826970790       -0.7325354537        2.3094495009
 H         -3.3544244950       -0.7627117424        3.0732423694
 H         -4.2489801019       -2.7361138407        2.2988951475
 H         -6.3826770347       -3.8577067958        2.7843915187
 H         -8.4655283760       -3.1356422041        1.7153695950
 H         -8.4640372084       -1.2791127616        0.0800705798
 H         -7.7821066840        0.7541015005       -1.6257410248
 H         -6.5925372768        2.4810416387       -2.9355219021
 H         -4.1872770481        2.8390275615       -2.6432719511
 H         -2.8876541118        1.4854088650       -1.0285374640
 H          2.1763991690       -0.1017801073        1.0178510786
 H          3.4823328700       -2.1974885404        0.0162137509
 H          5.1392812801       -3.7673749052        0.9665516712
 H          7.4250468353       -3.0418061404        1.4572893316
 H          8.1415816397       -0.7199590479        1.0053499305
 H          8.2541985887        1.9633029889        0.2967018351
 H          7.7422548414        4.2446609531       -0.5045465661
 H          5.5131577327        4.8091304698       -1.3435369994
 H          3.7158847727        3.1117718183       -1.4226541356
 H          3.2356048987        0.9615139624       -2.9681107321
  60
        -95.70162969
 C          1.0371462351        1.7520700783       -2.0596069971
 C          0.0983156794        1.0513340133       -1.3432196622
 C          0.4833344293        0.1359082955       -0.3362873745
 C         -0.5263658561       -0.5926510535        0.3582735665
 C         -0.2715669076       -1.5656113121        1.3484998297
 N         -1.2223813478       -2.2038527122        1.9556715096
 C         -2.5116704566       -1.9360992865        1.6717630143
 C         -2.8034324138       -0.9177248787        0.7602696821
 N         -4.1180632467       -0.5984857406        0.4720938291
 C         -5.1724895151       -0.5432875286        1.3683325888
 C         -5.1712189272       -0.6656286634        2.7500973695
 C         -6.3792831108       -0.5343134068        3.4116536280
 C         -7.5605371348       -0.2763028914        2.7229892040
 C         -7.5623276750       -0.1196798706        1.3490641158
 C         -6.3628660463       -0.2471402410        0.6649826801
 C         -5.9994898390       -0.1107212574       -0.7215312364
 C         -6.7153645177        0.1836455743       -1.8722294597
 C         -6.0347922536        0.2508734475       -3.0744775638
 C         -4.6624472122        0.0257996795       -3.1372742287
 C         -3.9288923196       -0.2734113333       -2.0033018010
 C         -4.6061097972       -0.3283179559       -0.7958805054
 N         -1.8427690060       -0.2878508506        0.1200165853
 C          1.8584214199       -0.0019121687       -0.0731508077
 C          2.7912487389        0.7199408493       -0.7933748254
 N          4.1572835158        0.5861822465       -0.4874666357
 C          4.8516292564       -0.5971922140       -0.3782396306
 C          4.4193165612       -1.8986801959       -0.5977075133
 C          5.3366600794       -2.9188152284       -0.4328584012
 C          6.6558100914       -2.6587048197       -0.0678906613
 C          7.0981007385       -1.3640420437        0.1300430882
 C          6.1956279758       -0.3225451589       -0.0280821814
 C          6.3015207294        1.1065644840        0.0823354192
 C          7.3394449844        1.9673751489        0.4084384022
 C          7.0852104501        3.3255619007        0.4476579446
 C          5.8126008703        3.8256481649        0.1807391922
 C          4.7628557817        2.9888550535       -0.1461026925
 C          5.0175028311        1.6251916745       -0.2097891660
 C          2.3938024991        1.5962796923       -1.8050659253
 H          0.7192938976        2.4326825425       -2.8362163195
 H         -0.9547273252        1.1826340985       -1.5354361069
 H          0.7401479262       -1.7850570707        1.6529118838
 H         -3.2716183087       -2.5688095183        2.0933834526
 H         -4.2587407304       -0.8402322270        3.2985599102
 H         -6.4028432057       -0.6290472493        4.4868015743
 H         -8.4839044004       -0.1826995623        3.2742912134
 H         -8.4741629798        0.1053896775        0.8173899365
 H         -7.7795081771        0.3581271995       -1.8261818362
 H         -6.5744098025        0.4785590395       -3.9815375301
 H         -4.1602548626        0.0814237044       -4.0913838941
 H         -2.8669171854       -0.4559290481       -2.0504710516
 H          2.2063796653       -0.6429462766        0.7218659766
 H          3.4031230997       -2.1051096037       -0.8975982639
 H          5.0256335402       -3.9401392708       -0.5951594612
 H          7.3421105077       -3.4834546408        0.0528930927
 H          8.1238414491       -1.1635366940        0.4002292512
 H          8.3223190435        1.5806450497        0.6314182726
 H          7.8798179418        4.0122769148        0.6982665142
 H          5.6416421711        4.8905380036        0.2350059508
 H          3.7751891301        3.3804457780       -0.3351371253
 H          3.1349298843        2.1286205969       -2.3799058638
  60
        -95.70115159
 C          1.3109778165       -1.5533108747       -2.2392150924
 C          0.2649891958       -0.8243380013       -1.7281476160
 C          0.4902200970        0.1937405369       -0.7734055581
 C         -0.6235461742        0.8942687847       -0.2218433631
 C         -0.5309061513        2.1363535494        0.4376320668
 N         -1.5688663481        2.7317125012        0.9402791094
 C         -2.7855899245        2.1552940518        0.8662763423
 C         -2.9274167141        0.9697898495        0.1404538602
 N         -4.1427621157        0.3143328084        0.0816223769
 C         -4.2743226688       -1.0622284267        0.2074924623
 C         -3.2914848471       -2.0371958757        0.2658685436
 C         -3.6977714876       -3.3524733025        0.4010970025
 C         -5.0452634348       -3.6893457817        0.4899934958
 C         -6.0282319371       -2.7176468469        0.4388106511
 C         -5.6437529650       -1.3925616114        0.2971255684
 C         -6.3717583510       -0.1536592987        0.2063423090
 C         -7.7239345787        0.1521612618        0.2097126408
 C         -8.1033391593        1.4740241747        0.0645482140
 C         -7.1525508580        2.4757890207       -0.1040683755
 C         -5.7976562326        2.1935674821       -0.1101396983
 C         -5.4095756835        0.8740981362        0.0704463832
 N         -1.8825928124        0.3868848793       -0.4089681055
 C          1.8099484016        0.4160477403       -0.3440928716
 C          2.8488310006       -0.3427069708       -0.8479241378
 N          4.1530920873       -0.1512702056       -0.3631574031
 C          4.9702922147       -1.1452773315        0.1296848726
 C          4.7184087637       -2.5027873440        0.2773037390
 C          5.7142328433       -3.2870517950        0.8272541040
 C          6.9300206398       -2.7403660100        1.2319548051
 C          7.1769167434       -1.3858280185        1.1111076202
 C          6.1920876648       -0.5772450300        0.5618820557
 C          6.0921433928        0.8349916613        0.3141227887
 C          6.9517044309        1.9050579719        0.5158637411
 C          6.5329571484        3.1690587823        0.1454299948
 C          5.2816742708        3.3700350727       -0.4333478180
 C          4.4082418484        2.3205096706       -0.6452245532
 C          4.8136518806        1.0515481250       -0.2535682047
 C          2.6136808084       -1.3238440867       -1.8158922669
 H          1.1217399591       -2.3145143932       -2.9821024925
 H         -0.7488148307       -1.0097163308       -2.0466328486
 H          0.4121866391        2.6603112971        0.4800200764
 H         -3.5827184497        2.5718790000        1.4551655435
 H         -2.2472569215       -1.7739555077        0.2030859775
 H         -2.9519760748       -4.1318548613        0.4450055582
 H         -5.3238327058       -4.7262914616        0.6032659554
 H         -7.0727164141       -2.9810403551        0.5063259298
 H         -8.4608960533       -0.6291056273        0.3161926195
 H         -9.1510677652        1.7339779861        0.0670412048
 H         -7.4777425692        3.4963388243       -0.2391316862
 H         -5.0729987586        2.9768017666       -0.2693152301
 H          2.0170354834        1.1413278858        0.4280034952
 H          3.7717973484       -2.9294173949       -0.0170765294
 H          5.5444057869       -4.3464102307        0.9504497351
 H          7.6842412966       -3.3869474399        1.6549742313
 H          8.1132932815       -0.9615058307        1.4405208722
 H          7.9273337984        1.7491282607        0.9508492359
 H          7.1857285067        4.0155328230        0.2974816420
 H          4.9893078862        4.3678783463       -0.7250034102
 H          3.4468203439        2.4794287382       -1.1096674916
 H          3.4402955710       -1.8803239928       -2.2285412228
  60
        -95.70004669
 C          1.1613900643        0.1736680292       -2.6101163701
 C          0.1880450488       -0.0441371707       -1.6673859948
 C          0.5020344231       -0.0994691697       -0.2880509687
 C         -0.5544567273       -0.2408797757        0.6561296568
 C         -0.3694960812       -0.3669210032        2.0521501226
 N         -1.3646625616       -0.4538830697        2.8754976231
 C         -2.6315569946       -0.4460571063        2.4215719007
 C         -2.8506735336       -0.4434416598        1.0390889511
 N         -4.1372334468       -0.4686956404        0.5353372545
 C         -5.2294172517       -1.1344530191        1.0698866201
 C         -5.2932120408       -2.0510905583        2.1093080481
 C         -6.5295035520       -2.5866489953        2.4251826262
 C         -7.6761846145       -2.2358113229        1.7196497261
 C         -7.6123875305       -1.3547021710        0.6559305432
 C         -6.3836747609       -0.8053932132        0.3225113493
 C         -5.9589940106        0.0924276944       -0.7197917331
 C         -6.6224741265        0.7299029188       -1.7573994256
 C         -5.8924207397        1.5371692931       -2.6107393261
 C         -4.5232856539        1.7152408013       -2.4340479916
 C         -3.8424840142        1.0937229198       -1.4024984500
 C         -4.5681660061        0.2712524175       -0.5561226069
 N         -1.8443031048       -0.3401423029        0.1999882238
 C          1.8556377340        0.0418157458        0.0755998069
 C          2.8210474608        0.2548921506       -0.8856615236
 N          4.1756591070        0.3854285321       -0.4983863419
 C          5.0110860374       -0.6491928862       -0.1578253679
 C          4.7386070468       -2.0087683224       -0.0935903791
 C          5.7745167415       -2.8532028281        0.2563349615
 C          7.0484148769       -2.3622035425        0.5367809176
 C          7.3237631877       -1.0086081365        0.4746935336
 C          6.3014183145       -0.1386825934        0.1242062666
 C          6.2188015179        1.2853368474       -0.0553442461
 C          7.1232060587        2.3283948856        0.0814325005
 C          6.6901240904        3.6168875678       -0.1718090610
 C          5.3754486808        3.8739026115       -0.5565646608
 C          4.4549303729        2.8537813372       -0.7001890846
 C          4.8860039330        1.5585657953       -0.4482510747
 C          2.4911661133        0.3348583279       -2.2384192534
 H          0.8941937212        0.2184666231       -3.6559318936
 H         -0.8426722566       -0.1719736190       -1.9583231096
 H          0.6235901890       -0.4411039778        2.4677778129
 H         -3.4301517793       -0.3490372539        3.1343852687
 H         -4.4094573551       -2.3562151101        2.6474321730
 H         -6.6027765434       -3.2974687345        3.2344338644
 H         -8.6232782630       -2.6718614795        1.9992184757
 H         -8.4957450374       -1.1017439360        0.0898874105
 H         -7.6843649319        0.5935612113       -1.8942090765
 H         -6.3897305297        2.0411777597       -3.4258134778
 H         -3.9808938804        2.3554914089       -3.1133653662
 H         -2.7834233989        1.2385698756       -1.2587169700
 H          2.1607475805       -0.0060793360        1.1098095174
 H          3.7517895733       -2.3862140826       -0.3163013510
 H          5.5954428573       -3.9167347314        0.3114975859
 H          7.8320495195       -3.0551834867        0.8045581155
 H          8.3130871246       -0.6336573142        0.6896631773
 H          8.1419471645        2.1350700580        0.3819984701
 H          7.3790628205        4.4419852567       -0.0689897816
 H          5.0706904954        4.8928019836       -0.7439146415
 H          3.4347978450        3.0496405551       -0.9947851659
 H          3.2645000465        0.5040020270       -2.9712642122
