  114
  -157.431800745800       0.405447188358243      !
 C          8.2458067155       -3.0116438953       -1.6767302554
 C          7.4673325692       -3.3380816142       -0.3936460382
 C          6.9839728742       -4.7881832621       -0.4860434489
 C          8.3970772201       -3.2220351461        0.8231873532
 C          6.3226789703       -2.3484961549       -0.2432526046
 C          6.6180878579       -0.9819198501       -0.1443227056
 C          5.6453529486       -0.0123901032       -0.0110628780
 C          4.3196372675       -0.4210841237        0.0151635443
 C          3.9946620581       -1.7937393679       -0.0596112477
 C          4.9929857535       -2.7462344367       -0.1911226321
 C          2.5601614965       -1.8780209958        0.0394825553
 C          1.6651233780       -2.9365741063       -0.0060739831
 C          0.3020954008       -2.6883437269        0.0865359244
 C         -0.7387416963       -3.7950823763        0.0515361481
 C         -1.5049041886       -3.7886450438        1.3816631793
 C         -0.1197508831       -5.1817545656       -0.1433985444
 C         -1.7154535464       -3.5358140306       -1.1045958758
 C         -0.1353654365       -1.3633624984        0.2161835964
 C          0.7321318031       -0.2919407815        0.2603580944
 C          2.0934590650       -0.5539606378        0.1848761276
 N          3.1656828438        0.3157428749        0.1694765893
 C          3.0417072108        1.7054475055        0.1982473405
 C          3.6765131523        2.5023192016       -0.7555116201
 C          3.4098639977        3.8528094836       -0.8139231493
 C          2.4866794702        4.4297287330        0.0631758092
 C          2.0700169984        5.8242647922       -0.1340209087
 O          2.8275298140        6.7282246036       -0.5005521212
 C          0.6226366648        6.0951732473        0.1486272181
 O          0.2421610314        7.2282394887        0.4628766452
 C         -0.2780021601        4.9423741159        0.0140241823
 C         -1.3677308634        4.8287869681        0.8853402266
 C         -2.1760459212        3.7151236638        0.8498679510
 C         -1.9240197893        2.6888563211       -0.0628402947
 N         -2.6789198102        1.5155282287       -0.0375377944
 C         -2.9641220487        0.7794219889        1.0938864366
 C         -2.5877998177        0.9788896601        2.4143715645
 C         -3.0035338903        0.0567243531        3.3535133339
 C         -3.7711676958       -1.0695744233        3.0284854914
 C         -4.2117780869       -2.0076908440        4.1404108688
 C         -5.0034676561       -3.2085686881        3.6158377921
 C         -5.1094503183       -1.2277439620        5.1120600844
 C         -2.9796591274       -2.5404286363        4.8850926853
 C         -4.1060094356       -1.2817429354        1.6983754509
 C         -3.7031463952       -0.3691393160        0.7350664992
 C         -3.8608396786       -0.3193013428       -0.6937314892
 C         -4.4836122484       -1.1617498605       -1.6023057564
 C         -4.4786006896       -0.8398285258       -2.9513091259
 C         -5.1171685244       -1.7302101609       -4.0046640425
 C         -6.2341746291       -0.9530883936       -4.7152252415
 C         -4.0436641423       -2.1481306522       -5.0199858113
 C         -5.7246389201       -3.0022894606       -3.4068652096
 C         -3.8653763093        0.3551698387       -3.3514525360
 C         -3.2391324743        1.2108343079       -2.4682241346
 C         -3.2123097212        0.8574538164       -1.1266621829
 C         -0.8922891316        2.8390317483       -0.9914492481
 C         -0.0872388508        3.9543091096       -0.9583675515
 C          1.9521890565        3.6499199365        1.0957971258
 C          2.2252287009        2.3041766267        1.1597623548
 H          9.0564274176       -3.7239394437       -1.8129833067
 H          7.5872265591       -3.0685861835       -2.5410676365
 H          8.6739072725       -2.0137703487       -1.6402263857
 H          7.8412504831       -5.4484121837       -0.5983410891
 H          6.4513290973       -5.0823130296        0.4155320401
 H          6.3360924995       -4.9317067733       -1.3478521643
 H          9.2115687087       -3.9380702782        0.7397802956
 H          7.8466422113       -3.4299259858        1.7384174584
 H          8.8269889329       -2.2276298606        0.9034471494
 H          7.6476478368       -0.6603979824       -0.1680706476
 H          5.9137587030        1.0290038136        0.0820708059
 H          4.7137042554       -3.7847743678       -0.2459194069
 H          2.0498628273       -3.9358709300       -0.1200618998
 H         -0.8180089849       -3.9606717088        2.2084518760
 H         -2.2514693504       -4.5805895129        1.3847242841
 H         -2.0054332884       -2.8386536602        1.5394447062
 H          0.5494992377       -5.4313497828        0.6766869978
 H          0.4277326668       -5.2374507787       -1.0814357798
 H         -0.9086098966       -5.9304776699       -0.1705062476
 H         -2.2493867460       -2.6012136952       -0.9712744687
 H         -1.1769858662       -3.4919021548       -2.0492756374
 H         -2.4439887508       -4.3420925838       -1.1619450290
 H         -1.1906560904       -1.1629173640        0.2827411528
 H          0.3595922523        0.7168802685        0.3374886589
 H          4.3350049284        2.0470772331       -1.4796386173
 H          3.8653054937        4.4696113161       -1.5733063894
 H         -1.5495198311        5.6209466068        1.5952269166
 H         -3.0160968150        3.6330491203        1.5228046615
 H         -1.9812960191        1.8227713910        2.7047462272
 H         -2.7176521676        0.2220686050        4.3802559568
 H         -5.9130375899       -2.8894196874        3.1123790581
 H         -5.2894182451       -3.8453155609        4.4501215752
 H         -4.4025463241       -3.8021272708        2.9310852286
 H         -5.9773805532       -0.8329422700        4.5878148492
 H         -5.4556604677       -1.8816475735        5.9092739704
 H         -4.5760182307       -0.3949601499        5.5619184989
 H         -3.2883345814       -3.2250318776        5.6718269466
 H         -2.3274493474       -3.0747874881        4.1983238413
 H         -2.4098668381       -1.7364780205        5.3417013209
 H         -4.6724845798       -2.1434763913        1.3904373981
 H         -4.9636401127       -2.0531645828       -1.2372375271
 H         -6.7134731039       -1.5846788925       -5.4598271586
 H         -5.8477701122       -0.0703353891       -5.2168850776
 H         -6.9865338531       -0.6344779140       -3.9966480793
 H         -4.4751698161       -2.8060339265       -5.7709064101
 H         -3.2381124426       -2.6790402816       -4.5164774184
 H         -3.6188501322       -1.2867638073       -5.5275554167
 H         -6.1533474181       -3.6069918913       -4.2029897527
 H         -6.5190020685       -2.7645635498       -2.7031877945
 H         -4.9655155167       -3.5975443469       -2.9045519338
 H         -3.8795754340        0.6324816148       -4.3938705523
 H         -2.7979554084        2.1320835647       -2.8165227252
 H         -0.7112519133        2.0601267840       -1.7156537499
 H          0.7038264330        4.0597501272       -1.6817801806
 H          1.3212915987        4.1070233637        1.8399536594
 H          1.8117859163        1.6997353557        1.9524424462
  114
  -157.431799870200       0.405071693063067      !
 C          8.2357689373       -2.9979291778       -1.6504218618
 C          7.4427129672       -3.3387873898       -0.3801421735
 C          6.9604886944       -4.7876896552       -0.4949429945
 C          8.3581009431       -3.2361428562        0.8487140001
 C          6.2964257572       -2.3510081339       -0.2312760278
 C          6.5904293200       -0.9851614908       -0.1179797257
 C          5.6161431430       -0.0171055463        0.0135253776
 C          4.2903139275       -0.4263357361        0.0230210758
 C          3.9667511537       -1.7984056576       -0.0650731295
 C          4.9665619068       -2.7495875873       -0.1941952675
 C          2.5312893771       -1.8836390914        0.0167357721
 C          1.6379022891       -2.9423381090       -0.0490673411
 C          0.2735396149       -2.6955226644        0.0262987966
 C         -0.7658273597       -3.8025662738       -0.0353400339
 C         -1.5649715041       -3.7993652749        1.2752250772
 C         -0.1423873664       -5.1890650086       -0.2168547704
 C         -1.7124118436       -3.5414283504       -1.2157837486
 C         -0.1661210450       -1.3718036271        0.1602573302
 C          0.7001015304       -0.3001595891        0.2258362586
 C          2.0623844521       -0.5606770351        0.1659850065
 N          3.1345080032        0.3092218130        0.1686064167
 C          3.0135350539        1.6991712766        0.2033228967
 C          3.6626631259        2.4978021198       -0.7390856518
 C          3.4049722336        3.8503002997       -0.7922110980
 C          2.4767810555        4.4279609516        0.0789577106
 C          2.0732224930        5.8269393220       -0.1158624744
 O          2.8436322029        6.7258459666       -0.4689027976
 C          0.6249623764        6.1103138623        0.1479532014
 O          0.2489740341        7.2479366464        0.4514069796
 C         -0.2819710190        4.9623346885        0.0105784071
 C         -1.3750143737        4.8539046407        0.8779486076
 C         -2.1836778008        3.7402866072        0.8442476496
 C         -1.9280631806        2.7093199978       -0.0621046519
 N         -2.6800647667        1.5344292192       -0.0296481995
 C         -2.9634912012        0.8054445893        1.1070546936
 C         -2.5885460003        1.0149137976        2.4264314347
 C         -2.9925924195        0.0921440542        3.3699577717
 C         -3.7495480804       -1.0432173219        3.0512438494
 C         -4.1642960664       -1.9900221085        4.1656303670
 C         -4.9608104729       -3.1912569583        3.6490708338
 C         -5.0444845268       -1.2245655526        5.1641372204
 C         -2.9116930579       -2.5208216143        4.8770520744
 C         -4.0885734546       -1.2617661102        1.7234091343
 C         -3.6948593003       -0.3499984510        0.7554458920
 C         -3.8481215374       -0.3132941556       -0.6741364102
 C         -4.4587804271       -1.1696813393       -1.5778670467
 C         -4.4423827302       -0.8642747288       -2.9306315411
 C         -5.0626767454       -1.7726084572       -3.9794094422
 C         -6.1670973349       -1.0087191348       -4.7232056588
 C         -3.9705026448       -2.2071293886       -4.9675372003
 C         -5.6804523015       -3.0344632316       -3.3707746131
 C         -3.8321115441        0.3291813917       -3.3396252250
 C         -3.2205269189        1.2000407269       -2.4609698217
 C         -3.2035494037        0.8626269793       -1.1151951139
 C         -0.8947707799        2.8559791101       -0.9894899998
 C         -0.0898648683        3.9713803825       -0.9585135108
 C          1.9264134081        3.6449426686        1.1009352656
 C          2.1896211504        2.2969711220        1.1591442229
 H          9.0492362186       -3.7075136329       -1.7844111674
 H          7.5875633027       -3.0470597880       -2.5230969666
 H          8.6617597083       -1.9998263394       -1.5987959092
 H          7.8188673538       -5.4467206265       -0.6065382410
 H          6.4187085943       -5.0927061153        0.3975962910
 H          6.3212503108       -4.9205369292       -1.3649819382
 H          9.1713755948       -3.9541078174        0.7693070197
 H          7.7958671910       -3.4499325979        1.7554764446
 H          8.7900376586       -2.2437250110        0.9425562679
 H          7.6200971476       -0.6633542098       -0.1283982157
 H          5.8831979520        1.0235700571        0.1179002102
 H          4.6880625719       -3.7876798588       -0.2598390369
 H          2.0248465939       -3.9403882009       -0.1659351905
 H         -0.8987804950       -3.9744399629        2.1181956261
 H         -2.3117569561       -4.5910000856        1.2575073091
 H         -2.0686804701       -2.8497331817        1.4243694397
 H          0.5133465322       -5.4362517284        0.6149084482
 H          0.4206116425       -5.2465975883       -1.1456772313
 H         -0.9303357714       -5.9385124717       -0.2553871531
 H         -2.2416323030       -2.6016230948       -1.1002011114
 H         -1.1506199285       -3.5069146068       -2.1473274406
 H         -2.4456359617       -4.3425118516       -1.2868192708
 H         -1.2223515136       -1.1719806702        0.2121192083
 H          0.3254856401        0.7074791001        0.3072227521
 H          4.3263594670        2.0433233347       -1.4589077240
 H          3.8728519336        4.4687599085       -1.5426288714
 H         -1.5591823292        5.6486289938        1.5843114736
 H         -3.0259709425        3.6611196871        1.5147063022
 H         -1.9892885324        1.8655246962        2.7123371189
 H         -2.7044633966        0.2631251979        4.3952008837
 H         -5.8775658522       -2.8724547731        3.1586144544
 H         -5.2342819346       -3.8303348383        4.4857789983
 H         -4.3680300251       -3.7823861140        2.9551908278
 H         -5.9275752479       -0.8326174424        4.6636719301
 H         -5.3668023333       -1.8875733513        5.9638913035
 H         -4.5074935475       -0.3913264475        5.6087797870
 H         -3.1967215144       -3.2157587319        5.6636819698
 H         -2.2712084967       -3.0429564408        4.1698790949
 H         -2.3376507460       -1.7164910744        5.3280040921
 H         -4.6499569490       -2.1285150735        1.4201894703
 H         -4.9374069374       -2.0591962010       -1.2064068335
 H         -6.6371031453       -1.6553711687       -5.4608002584
 H         -5.7712750416       -0.1381670567       -5.2385813000
 H         -6.9290342187       -0.6727124146       -4.0228697731
 H         -3.1766447388       -2.7330334495       -4.4407044643
 H         -3.5332651511       -1.3535311911       -5.4778209305
 H         -4.3888262606       -2.8741042855       -5.7179628716
 H         -6.0975389073       -3.6514519102       -4.1636376847
 H         -6.4850508213       -2.7846839479       -2.6831194398
 H         -4.9297804520       -3.6223755813       -2.8477273534
 H         -3.8361467691        0.5923635893       -4.3857327790
 H         -2.7816503862        2.1194091952       -2.8168716796
 H         -0.7110659172        2.0745207519       -1.7101291351
 H          0.7028268713        4.0745170310       -1.6804795444
 H          1.2905148462        4.1016330923        1.8410394630
 H          1.7628613893        1.6898314834        1.9426904363
  114
  -157.431081878900       0.189481118578690      !
 C          8.3151332127       -3.0036133500       -1.3764048764
 C          7.4245970071       -3.3609449710       -0.1775208624
 C          6.9418536472       -4.8029976195       -0.3577109541
 C          8.2436571781       -3.2892330793        1.1196343403
 C          6.2769788453       -2.3672181876       -0.0919796359
 C          6.5705146192       -1.0038957919        0.0498486186
 C          5.5947911958       -0.0324163741        0.1396169313
 C          4.2685901074       -0.4360218175        0.0788726156
 C          3.9443130492       -1.8053106088       -0.0438378574
 C          4.9453325499       -2.7596923523       -0.1320513446
 C          2.5063568863       -1.8849593422       -0.0344046470
 C          1.6127932968       -2.9374527409       -0.1641568601
 C          0.2475119410       -2.6847323116       -0.1510973622
 C         -0.7917479459       -3.7854259337       -0.2855858860
 C         -1.6239168469       -3.8302456549        1.0033858378
 C         -0.1664570564       -5.1653591842       -0.5068033504
 C         -1.7072862981       -3.4775157925       -1.4792019390
 C         -0.1926655061       -1.3620742841       -0.0079979478
 C          0.6737984174       -0.2962737349        0.1193657606
 C          2.0361709118       -0.5625205333        0.1146709870
 N          3.1101954542        0.3022544578        0.1800081618
 C          2.9903586396        1.6929194264        0.2152136715
 C          3.6672410396        2.4920459317       -0.7068034799
 C          3.4093821714        3.8440941023       -0.7681387437
 C          2.4564738364        4.4217169291        0.0764345044
 C          2.0658107338        5.8226718944       -0.1270179513
 O          2.8488348928        6.7129421414       -0.4748203085
 C          0.6184665440        6.1228045720        0.1206259648
 O          0.2506634800        7.2640412280        0.4190668508
 C         -0.2981856175        4.9827962599       -0.0239724345
 C         -1.3883036789        4.8756051553        0.8468538744
 C         -2.1972406981        3.7623676371        0.8146705409
 C         -1.9480860126        2.7347898580       -0.0973311961
 N         -2.6927892698        1.5553352787       -0.0489648591
 C         -2.9278825881        0.8234281378        1.0967763769
 C         -2.4992131910        1.0343557250        2.3992690537
 C         -2.8471553897        0.1017865624        3.3550402457
 C         -3.6033647843       -1.0416344262        3.0645931676
 C         -3.9388966241       -2.0075989364        4.1890596615
 C         -4.7509469825       -3.2121844812        3.7055856300
 C         -4.7627760190       -1.2694359799        5.2537021366
 C         -2.6353885533       -2.5311652837        4.8090436073
 C         -4.0050332279       -1.2557084537        1.7537326772
 C         -3.6629683025       -0.3371331287        0.7724262296
 C         -3.8680875170       -0.3014982548       -0.6507630425
 C         -4.4987783517       -1.1656148213       -1.5330807232
 C         -4.5252084476       -0.8650147601       -2.8869128035
 C         -5.1703568627       -1.7823273313       -3.9127317019
 C         -6.3080749725       -1.0315745424       -4.6186842683
 C         -4.1087049182       -2.2072395348       -4.9376157939
 C         -5.7531579315       -3.0497756983       -3.2815893400
 C         -3.9349930631        0.3306817513       -3.3184195975
 C         -3.3035466234        1.2092329412       -2.4614682242
 C         -3.2461541803        0.8780180648       -1.1153479119
 C         -0.9238712076        2.8848293794       -1.0336953976
 C         -0.1135597558        3.9967118249       -0.9992515411
 C          1.8792594758        3.6382749746        1.0832577434
 C          2.1384126790        2.2896489948        1.1464166462
 H          9.1235468318       -3.7254113320       -1.4685741212
 H          7.7325886014       -3.0186595020       -2.2953105779
 H          8.7543286550       -2.0159189153       -1.2678077421
 H          7.8016878052       -5.4661811882       -0.4232236582
 H          6.3369844510       -5.1235433893        0.4875353732
 H          6.3643764872       -4.9115233580       -1.2731450758
 H          8.6643458704       -2.2988864885        1.2704759472
 H          9.0618935846       -4.0051051102        1.0851272236
 H          7.6139798425       -3.5251943153        1.9751683479
 H          7.6007267203       -0.6873635676        0.0976795515
 H          5.8594557882        1.0064288393        0.2666099276
 H          4.6663493512       -3.7955317903       -0.2250827098
 H          2.0004660436       -3.9350366834       -0.2822614347
 H         -0.9833368764       -4.0629847553        1.8521955530
 H         -2.3875308045       -4.6021524884        0.9273774590
 H         -2.1081325968       -2.8767316642        1.1883041088
 H          0.4589894789       -5.4531708075        0.3350451618
 H          0.4287450337       -5.1829336112       -1.4170074402
 H         -0.9546933943       -5.9088871907       -0.6063508189
 H         -2.2482680552       -2.5479887044       -1.3378752437
 H         -1.1202367821       -3.3987182955       -2.3921919093
 H         -2.4317835668       -4.2796338012       -1.6056338323
 H         -1.2493725203       -1.1586989811        0.0007010893
 H          0.3006466886        0.7114014084        0.2065021216
 H          4.3538513367        2.0379433660       -1.4051941829
 H          3.8990216623        4.4634192199       -1.5036576343
 H         -1.5676347673        5.6682764257        1.5568123217
 H         -3.0338802643        3.6791247901        1.4918146163
 H         -1.8987277528        1.8919712973        2.6608211141
 H         -2.5129117871        0.2701805159        4.3666044883
 H         -5.6992554269       -2.8986932871        3.2754128759
 H         -4.9658798202       -3.8648201817        4.5488070005
 H         -4.1940805411       -3.7874378810        2.9698752093
 H         -5.6809654528       -0.8817729920        4.8170531762
 H         -5.0248405692       -1.9492514212        6.0613501197
 H         -4.2090850844       -0.4361260044        5.6773129641
 H         -2.8584651340       -3.2455262979        5.5982349434
 H         -2.0332172807       -3.0285980636        4.0518958118
 H         -2.0460827664       -1.7257508176        5.2379078401
 H         -4.5741636242       -2.1252989336        1.4738253973
 H         -4.9572198987       -2.0584525997       -1.1445141927
 H         -6.7931274549       -1.6829859203       -5.3421974701
 H         -5.9400791834       -0.1550685939       -5.1443928212
 H         -7.0513648728       -0.7068320328       -3.8934536394
 H         -3.7014681063       -1.3507578176       -5.4672909685
 H         -4.5453397432       -2.8828884856       -5.6696296187
 H         -3.2897232356       -2.7205780683       -4.4376669185
 H         -6.1901742626       -3.6726941125       -4.0589937786
 H         -6.5366294004       -2.8081310745       -2.5671077189
 H         -4.9785417575       -3.6283696442       -2.7836913580
 H         -3.9709810353        0.5890304188       -4.3650930753
 H         -2.8777623371        2.1286128405       -2.8331747433
 H         -0.7497142096        2.1080712999       -1.7620454241
 H          0.6780588134        4.1008762917       -1.7225361039
 H          1.2264330308        4.0945697282        1.8084713206
 H          1.6877456339        1.6815727733        1.9158259927
