  58
  -86.2332796096000       0.410410196890263      !
 C         -1.2902640199        2.6740131219       -1.5071742899
 C         -1.6100842939        2.0886009921       -0.1129364383
 C         -1.1185454065        2.9951559745        1.0452172859
 C         -3.1263665797        2.0348514370       -0.0401339984
 C         -3.8423361569        3.2242531189       -0.0429539124
 C         -5.2247071369        3.2431853961       -0.0189679472
 C         -5.9188513124        2.0464568716        0.0059944874
 C         -5.2302423673        0.8514618984        0.0139955006
 C         -3.8329941950        0.8332673631       -0.0073560467
 N         -3.1501514794       -0.3704168494        0.0046801213
 C         -3.9094238379       -1.5754776816        0.0375211107
 C         -4.2435959352       -2.2146229678       -1.1497327476
 C         -4.9908818109       -3.3788718523       -1.1171098959
 C         -5.4065433026       -3.9041859961        0.0953745563
 C         -5.0751558826       -3.2650834787        1.2791375189
 C         -4.3274789167       -2.1011818876        1.2539923296
 C         -1.7700103654       -0.4307905751        0.0274484231
 C         -1.1800371229       -1.7162104753        0.1012071377
 C          0.1681327816       -1.8691470310        0.1174130064
 C          1.0152752468       -0.7448238644        0.0599265588
 C          2.4092690197       -0.9177246172        0.0597977149
 C          3.2729620403        0.1505151271        0.0096189229
 C          4.7262260030       -0.0366415223        0.0111132547
 C          5.5578649453        0.8360191764        0.7159209274
 C          6.9252451568        0.6633189480        0.7210636842
 C          7.4942274394       -0.3953378184        0.0101327115
 C          8.8934671887       -0.5753010826        0.0071728528
 N         10.0318078714       -0.7228140230        0.0044469675
 C          6.6737547724       -1.2750095040       -0.6994010467
 C          5.3078580538       -1.0929749709       -0.6936838491
 C          2.7106307063        1.4420692685       -0.0438109994
 C          1.3597080735        1.6348645047       -0.0536893793
 C          0.4395027218        0.5565746644       -0.0025990896
 C         -0.9758597967        0.7075015142       -0.0159884028
 H         -1.6299173430        3.7041658161       -1.5765918286
 H         -1.8156043650        2.0937447626       -2.2644269390
 H         -0.2311618822        2.6368319257       -1.7375887491
 H         -1.9485538328        3.2408653438        1.7040573464
 H         -0.3688967613        2.4913532343        1.6480507430
 H         -0.7003066660        3.9276450865        0.6743394983
 H         -3.3078373323        4.1618859395       -0.0640431787
 H         -5.7536688608        4.1838084939       -0.0241534150
 H         -6.9984011133        2.0404138354        0.0197661122
 H         -5.7768847538       -0.0786262724        0.0349575092
 H         -3.9133069733       -1.7942451577       -2.0883828719
 H         -5.2493172286       -3.8756186045       -2.0403288455
 H         -5.9899882253       -4.8121494203        0.1179607834
 H         -5.4001585619       -3.6727402435        2.2245207406
 H         -4.0648461582       -1.5911722713        2.1688781420
 H         -1.8200049819       -2.5834252029        0.1443466849
 H          0.6066584953       -2.8548540535        0.1715058619
 H          2.7938154250       -1.9257616322        0.1286864572
 H          5.1224717865        1.6453637813        1.2829854904
 H          7.5632254974        1.3388622818        1.2723714774
 H          7.1184997906       -2.0898221871       -1.2518216960
 H          4.6783987255       -1.7646347033       -1.2584993279
 H          3.3672721836        2.2980023630       -0.1055890246
 H          1.0062937005        2.6483409332       -0.1003742107
  58
  -86.2332135624000       0.382705717962407      !
 C         -1.2797325169        2.7123390068       -1.3753446275
 C         -1.6150815965        2.0968678995        0.0020788580
 C         -1.1414981076        2.9798758374        1.1855495937
 C         -3.1321697943        2.0382091075        0.0504334596
 C         -3.8497662750        3.2265748121        0.0629473668
 C         -5.2321755977        3.2437993417        0.0463868065
 C         -5.9241634642        2.0462600690        0.0085608695
 C         -5.2340087508        0.8520679777        0.0037977757
 C         -3.8370163496        0.8350583342        0.0332948063
 N         -3.1511889555       -0.3675146997        0.0411316168
 C         -3.8995285044       -1.5761493305       -0.0389727264
 C         -4.0444821885       -2.2160445420       -1.2635512130
 C         -4.7765373658       -3.3872131817       -1.3460904620
 C         -5.3678395610       -3.9184571072       -0.2118360536
 C         -5.2263596788       -3.2785153407        1.0085959587
 C         -4.4926364533       -2.1088875675        1.0991032330
 C         -1.7715505954       -0.4240231557        0.1013086337
 C         -1.1807545294       -1.7073895976        0.2002952892
 C          0.1674350412       -1.8585057506        0.2281463607
 C          1.0135221033       -0.7336917622        0.1658413393
 C          2.4075779812       -0.9054678402        0.1594864998
 C          3.2701185601        0.1623713213        0.0857019385
 C          4.7220591217       -0.0282866942        0.0399498222
 C          5.5200733239        0.7795877731       -0.7730520385
 C          6.8841688080        0.5939576008       -0.8369783942
 C          7.4844491024       -0.4125482663       -0.0775251987
 C          8.8796072983       -0.6101665718       -0.1456595967
 N         10.0144162300       -0.7694055868       -0.2126590127
 C          6.6988008542       -1.2230520383        0.7446009650
 C          5.3355745722       -1.0286989285        0.7972060049
 C          2.7065991917        1.4540562917        0.0447145591
 C          1.3558739268        1.6468793265        0.0659558606
 C          0.4364712921        0.5672454551        0.1079012374
 C         -0.9789370782        0.7159331119        0.0823863653
 H         -1.7830022743        2.1381251358       -2.1521084867
 H         -0.2165497106        2.6963458718       -1.5883262953
 H         -1.6348580007        3.7380967114       -1.4317567289
 H         -0.3805826660        2.4756045619        1.7740238836
 H         -0.7437418254        3.9317601291        0.8412984588
 H         -1.9766883004        3.1879888536        1.8512186438
 H         -3.3162782776        4.1647506429        0.0842897028
 H         -5.7624049174        4.1837111925        0.0543453711
 H         -7.0034636363        2.0385881708       -0.0172934935
 H         -5.7800724555       -0.0779269240       -0.0279112508
 H         -3.5775502996       -1.7919819723       -2.1405012515
 H         -4.8866005005       -3.8839122415       -2.2983882077
 H         -5.9394771802       -4.8316930783       -0.2789420963
 H         -5.6866455509       -3.6916927828        1.8935691126
 H         -4.3744872516       -1.6009215313        2.0450915879
 H         -1.8198757143       -2.5746320817        0.2541590821
 H          0.6063671538       -2.8430112389        0.2975873967
 H          2.7919685810       -1.9156863723        0.1777705494
 H          5.0595565537        1.5459777361       -1.3788277747
 H          7.4952938045        1.2169914981       -1.4737529289
 H          7.1678346746       -1.9963770615        1.3353462184
 H          4.7341428329       -1.6476098664        1.4464181188
 H          3.3628902502        2.3123382236        0.0238403877
 H          1.0013933215        2.6611824965        0.0510669426
  58
  -86.2322686272000       0.140800047242984      !
 C         -1.2463164222        2.9752843121       -1.3713127245
 C         -1.6140145293        2.1024552583       -0.1435338521
 C         -1.1625971181        2.7317772115        1.1942440606
 C         -3.1289446351        2.0373723633       -0.0567086969
 C         -3.8469633718        3.2239758250        0.0079672496
 C         -5.2202923205        3.2378775680        0.1658529251
 C         -5.9012298966        2.0382082820        0.2730335031
 C         -5.2119091274        0.8459310238        0.1982387757
 C         -3.8259278949        0.8317422914        0.0196121253
 N         -3.1418545349       -0.3692923204       -0.0710632343
 C         -3.8684050740       -1.5815663266        0.0928460979
 C         -4.6420897885       -2.0813465493       -0.9475683975
 C         -5.3530995469       -3.2556284555       -0.7734910751
 C         -5.2905614248       -3.9352805488        0.4318604752
 C         -4.5176772691       -3.4382784157        1.4683575937
 C         -3.8095946225       -2.2614637299        1.3035475546
 C         -1.7699631217       -0.4190462483       -0.2358669902
 C         -1.1827967427       -1.6984132275       -0.3937389752
 C          0.1639721448       -1.8468968788       -0.4682924483
 C          1.0097023519       -0.7213570851       -0.4144196071
 C          2.4039048777       -0.8905585996       -0.3872340035
 C          3.2613394615        0.1808318584       -0.3090068546
 C          4.7047286822       -0.0088432624       -0.1448846284
 C          5.3822462393       -1.0360926326       -0.8044438721
 C          6.7287603384       -1.2439714415       -0.5960305859
 C          7.4304117282       -0.4212832869        0.2878140533
 C          8.8030072144       -0.6431444499        0.5263483421
 N          9.9180637832       -0.8238348859        0.7289855505
 C          6.7671712448        0.6179378055        0.9436575117
 C          5.4219789806        0.8180591688        0.7227439076
 C          2.6972340173        1.4726302561       -0.3454466002
 C          1.3467512527        1.6619623403       -0.3893981240
 C          0.4306761416        0.5787641016       -0.3648979783
 C         -0.9816285784        0.7233165925       -0.2658931472
 H         -2.1395903468        3.1952478547       -1.9523577514
 H         -0.5547538108        2.4565171595       -2.0292492514
 H         -0.8020309562        3.9219069453       -1.0725181088
 H         -1.6044849862        2.1712039201        2.0169162083
 H         -0.0857778719        2.7087269168        1.3187934746
 H         -1.5031565679        3.7612377608        1.2671821365
 H         -3.3199120302        4.1634642928       -0.0614343276
 H         -5.7505963943        4.1763565607        0.2173362435
 H         -6.9713699501        2.0272947705        0.4155448853
 H         -5.7501714355       -0.0848078860        0.2865460402
 H         -4.6825280124       -1.5434042395       -1.8834141672
 H         -5.9548679477       -3.6417989257       -1.5824896187
 H         -5.8438781639       -4.8527279021        0.5634714255
 H         -4.4677922251       -3.9657900839        2.4090800252
 H         -3.2025192186       -1.8642554512        2.1040293745
 H         -1.8224183196       -2.5654565670       -0.4435768287
 H          0.6020334506       -2.8296733383       -0.5626820847
 H          2.7907106583       -1.8998974774       -0.3767346137
 H          4.8460672040       -1.6680241897       -1.4969002871
 H          7.2487982454       -2.0403636910       -1.1082806854
 H          7.3133515582        1.2525541361        1.6263313852
 H          4.9076896649        1.6076050224        1.2505655802
 H          3.3540578547        2.3307049357       -0.3616972051
 H          0.9888691412        2.6739470952       -0.4397517826
  58
  -86.2315538122000       6.608403790434568E-002 !
 C         -1.4641152318        2.7223195776       -1.6803234883
 C         -1.6154378020        2.0930073957       -0.2773480985
 C         -0.9864457061        2.9654893250        0.8405425278
 C         -3.1092896469        2.0314453355       -0.0106601303
 C         -3.8114950222        3.2195429051        0.1427766761
 C         -5.1668138485        3.2360924630        0.4136136436
 C         -5.8438131146        2.0370669801        0.5494979355
 C         -5.1702505924        0.8440211893        0.3913255940
 C         -3.8055009097        0.8276364887        0.0900301341
 N         -3.1392885291       -0.3750890317       -0.0850919375
 C         -3.8768890927       -1.5817515715        0.0669337223
 C         -4.7196247435       -2.0130993074       -0.9499893778
 C         -5.4486905746       -3.1787026702       -0.7923097608
 C         -5.3349523541       -3.9188081879        0.3728733376
 C         -4.4935513421       -3.4900027609        1.3865061107
 C         -3.7685796543       -2.3214494330        1.2392143732
 C         -1.7673248759       -0.4302375933       -0.2532791455
 C         -1.1801509201       -1.7119849680       -0.3906546849
 C          0.1668858880       -1.8629865954       -0.4565255141
 C          1.0133905097       -0.7375354452       -0.4204580251
 C          2.4075278250       -0.9056533368       -0.3792231687
 C          3.2635298030        0.1684217205       -0.3291020144
 C          4.7046100972       -0.0118931756       -0.1362473581
 C          5.3979965653       -1.0541830517       -0.7539831660
 C          6.7416322094       -1.2491360405       -0.5154795736
 C          7.4231364037       -0.3985658934        0.3576326156
 C          8.7924243849       -0.6049869296        0.6275039740
 N          9.9044627015       -0.7749037919        0.8560750625
 C          6.7434551558        0.6551589101        0.9723500878
 C          5.4017617905        0.8424350558        0.7211922553
 C          2.6999849102        1.4577674960       -0.4200614898
 C          1.3498362974        1.6449509560       -0.4753833325
 C          0.4338429906        0.5632600568       -0.4094562304
 C         -0.9777935841        0.7109983224       -0.3070077135
 H         -1.8059368047        3.7541788000       -1.6764357333
 H         -2.0772728930        2.1657931104       -2.3878496422
 H         -0.4394243192        2.6926905738       -2.0356672921
 H         -1.7304028965        3.1901370198        1.6018109311
 H         -0.1706120411        2.4462431533        1.3341869614
 H         -0.6139876084        3.9094680804        0.4497468317
 H         -3.2842258989        4.1577337342        0.0593524833
 H         -5.6854128817        4.1754859423        0.5282987320
 H         -6.8983182922        2.0272826705        0.7809172421
 H         -5.7043892421       -0.0858541521        0.5085828764
 H         -4.8007351515       -1.4281926803       -1.8544659187
 H         -6.1044032653       -3.5107643526       -1.5832095154
 H         -5.9022426221       -4.8294252101        0.4917210719
 H         -4.4048817719       -4.0635188168        2.2970128931
 H         -3.1122141290       -1.9749970271        2.0243542215
 H         -1.8192361053       -2.5796806484       -0.4323130727
 H          0.6041254679       -2.8476995946       -0.5327744580
 H          2.7948290595       -1.9138410976       -0.3334111009
 H          4.8764153017       -1.7090401154       -1.4362668068
 H          7.2744823916       -2.0573519764       -0.9949977637
 H          7.2741591261        1.3109286728        1.6471960749
 H          4.8739939230        1.6444691606        1.2159326736
 H          3.3573589984        2.3142143697       -0.4674536966
 H          0.9921341233        2.6548266466       -0.5580254951
