52
 energy: -79.293355514331 gnorm: 0.000071919962 xtb: 6.7.1 (edcfbbe)
O           -1.72338520587990       -0.38600685072397        2.46254374946186
C           -2.60662958982406        0.63951801770549        2.06720786962453
C           -3.44920061548573        0.29775905579262        0.85543667887067
C           -4.83409527129648        0.29430509123526        0.95371355391431
C           -5.62901784805930       -0.00259981996167       -0.13933636193366
C           -5.04311346849766       -0.31038694300921       -1.35489711142301
C           -3.66513487470468       -0.31942418274144       -1.46675721786233
C           -2.86205277859411       -0.01553035426477       -0.37343855297782
C           -1.38907164179052       -0.03199437504124       -0.51363895992091
C           -0.69109045593876        1.17630936549575       -0.63144214968554
C           -1.36507400205818        2.42243455635801       -0.72512198929807
C           -0.67318416144060        3.59034520038560       -0.82013455944958
C            0.73671072407556        3.58384999201821       -0.83327979069739
C            1.41970280316162        2.40963179598933       -0.75048701905263
C            0.73652354293090        1.16998052644933       -0.64411070761456
C            1.42441003557836       -0.04425477172828       -0.53567727831605
C            2.89364349220231       -0.03572103259079       -0.36345799262854
C            3.73904463820692       -0.37906312422896       -1.41163161110283
C            5.11132219127635       -0.37805919117622       -1.24004624757543
C            5.65059393266192       -0.03924902591065       -0.01094403211058
C            4.81497814524540        0.29686507374482        1.03973887319457
C            3.43652067907154        0.30719667135641        0.87861460015223
C            2.54258313528499        0.70553579362498        2.03050649954709
O            1.39920134477783       -0.10493012867840        2.19907034883363
C            0.72721801018031       -1.25956372018219       -0.50781721251674
C            1.39842914337118       -2.50823740419916       -0.43613604161671
C            0.70503406337295       -3.67749689823531       -0.37079867017219
C           -0.70416573453322       -3.66999463073964       -0.35720232068527
C           -1.38540909806002       -2.49347563976493       -0.41055395536557
C           -0.70139848415662       -1.25296290689101       -0.49382893834789
H           -0.87470694858305       -0.28537933697779        2.01403466617472
H           -2.05904301169001        1.57321077119196        1.87664146873816
H           -3.27355946131512        0.80666162725895        2.91968653482517
H           -5.29553282880459        0.52894439584921        1.90232084978521
H           -6.70456223013898        0.00315892933364       -0.04117381070410
H           -5.65652808973960       -0.54520669188160       -2.21234010499669
H           -3.19541827375717       -0.55891623457772       -2.41039242607609
H           -2.44572025835071        2.42236115326035       -0.72973621232360
H           -1.19772746166837        4.53185946958752       -0.89258035346709
H            1.26850597629452        4.52053000898966       -0.91639925921517
H            2.50020138247662        2.40132893527475       -0.77756083596655
H            3.30786678710577       -0.64069377988505       -2.36728348546968
H            5.75837979491669       -0.64274149307882       -2.06312620334763
H            6.72095188571110       -0.03925557559540        0.13134421046987
H            5.23794906631839        0.55911940244476        1.99939503842366
H            2.15002978878562        1.71364240957545        1.85509733103148
H            3.13341473400461        0.72749807079791        2.95741487066101
H            1.67823362967840       -1.01585592597900        2.34508206097053
H            2.47913477709806       -2.51484082616719       -0.43896471122460
H            1.22978202384672       -4.62069360168195       -0.32243658603557
H           -1.23670451336237       -4.60761768127691       -0.29720168158177
H           -2.46455699545208       -2.48476602435991       -0.38777277151698
