  52
        -79.29335027
 O         -1.7277158056       -0.3830089843        2.4635715242
 C         -2.6167060079        0.6375699336        2.0686847354
 C         -3.4541074956        0.2944097878        0.8540341029
 C         -4.8393338397        0.2855895755        0.9481689565
 C         -5.6299001259       -0.0115996721       -0.1479173780
 C         -5.0393306973       -0.3142817232       -1.3625164623
 C         -3.6610324627       -0.3181460213       -1.4702135041
 C         -2.8622439628       -0.0140489561       -0.3737292945
 C         -1.3888656362       -0.0281063247       -0.5104572805
 C         -0.6913254964        1.1804826196       -0.6272316793
 C         -1.3656745698        2.4265756533       -0.7187687939
 C         -0.6740796610        3.5946993809       -0.8132298927
 C          0.7357991277        3.5884733874       -0.8286138578
 C          1.4191625226        2.4143186434       -0.7478064294
 C          0.7363527447        1.1745153920       -0.6412920953
 C          1.4246342783       -0.0394945789       -0.5340833598
 C          2.8942823648       -0.0332136715       -0.3653945402
 C          3.7357336770       -0.3796102760       -1.4157935290
 C          5.1082929353       -0.3869159260       -1.2469380298
 C          5.6518342327       -0.0535837938       -0.0182032685
 C          4.8202213530        0.2868853236        1.0342133180
 C          3.4415035248        0.3058436149        0.8757674099
 C          2.5523537423        0.7087409267        2.0298559590
 O          1.4038474918       -0.0939897300        2.2001072659
 C          0.7277774194       -1.2550604020       -0.5045812619
 C          1.3993081348       -2.5035008078       -0.4318138488
 C          0.7062832926       -3.6728793618       -0.3647681807
 C         -0.7028783278       -3.6657953430       -0.3510182185
 C         -1.3844267284       -2.4895177110       -0.4057383514
 C         -0.7007701290       -1.2488952537       -0.4901584980
 H         -0.8811591878       -0.2801339826        2.0117067470
 H         -2.0745405541        1.5753042608        1.8822166942
 H         -3.2864133335        0.7975649287        2.9202397210
 H         -5.3045282535        0.5167600326        1.8957714876
 H         -6.7057461010       -0.0102106008       -0.0529140130
 H         -5.6492150385       -0.5488174674       -2.2225305059
 H         -3.1876072282       -0.5534089856       -2.4130509567
 H         -2.4463285361        2.4262531694       -0.7220976076
 H         -1.1988402055        4.5362498859       -0.8837598663
 H          1.2672019902        4.5253758024       -0.9116597853
 H          2.4996412567        2.4061069930       -0.7760799932
 H          3.3011174252       -0.6379148884       -2.3708017804
 H          5.7521113004       -0.6544653188       -2.0716175895
 H          6.7223781967       -0.0615158335        0.1223908783
 H          5.2466057289        0.5451037696        1.9934558902
 H          2.1661358855        1.7195163830        1.8560015103
 H          3.1450911569        0.7261710991        2.9555859983
 H          1.6766899492       -1.0068986770        2.3454808550
 H          2.4799917081       -2.5100056830       -0.4350491644
 H          1.2314112032       -4.6158056976       -0.3153369522
 H         -1.2351705957       -4.6034487521       -0.2896196883
 H         -2.4635575724       -2.4811062819       -0.3823184327
