52
 energy: -79.229091579480 gnorm: 0.000075535225 xtb: 6.7.1 (edcfbbe)
O           -1.65480029754081       -0.22243259570148        2.45008953075867
C           -2.59958422955569        0.75168323776888        2.07150797969365
C           -3.44206569983293        0.35688759288427        0.87615331530723
C           -4.82626434800827        0.36649088338936        0.97451599208193
C           -5.62488228808847       -0.00779512716144       -0.09186578403213
C           -5.04014946028917       -0.41648172511423       -1.27836854614367
C           -3.66340644561436       -0.44129531150527       -1.38965090903093
C           -2.85199018055428       -0.04851237817641       -0.32711582399436
C           -1.38988311185270       -0.06591051654905       -0.48009243014886
C           -0.68528123834635        1.17209921827701       -0.56647803593885
C           -1.35551523029322        2.39430147398759       -0.64299414652973
C           -0.65328934881830        3.59678846769418       -0.74061954258397
C            0.72250714610710        3.58911753094112       -0.78001017427054
C            1.41544715491619        2.37795729239032       -0.71871779751223
C            0.73713685777993        1.16550674737468       -0.60142222632137
C            1.43432168730882       -0.07872359850824       -0.52821788202450
C            2.89023931517259       -0.06658344882055       -0.33073269841478
C            3.75302384605459       -0.49767145316411       -1.33624652609215
C            5.12217611457961       -0.47892931268815       -1.15098909592074
C            5.65009376475313       -0.03759743574392        0.05092721570566
C            4.80200000967856        0.37811594412992        1.06257534223957
C            3.42633013331521        0.37224051360879        0.88698254699867
C            2.51806323656190        0.82350419252096        2.00674560145857
O            1.34037080074269        0.05781999356435        2.14354981865382
C            0.72929326513283       -1.31993755640191       -0.58332517632179
C            1.39334554166705       -2.54662967909001       -0.58657151793973
C            0.68875232995249       -3.75253680237007       -0.59321174504328
C           -0.68655439624769       -3.74396131230070       -0.56420634671563
C           -1.37549553178937       -2.53018911310650       -0.52868284317337
C           -0.69680719677803       -1.31202385611540       -0.55418991575906
H           -0.81636000408113       -0.07056493298907        1.99553254882686
H           -2.10924917929272        1.71502736588794        1.87242229098565
H           -3.26106438205448        0.88205036309947        2.93475433507930
H           -5.28546480901116        0.66983297410193        1.90468790745466
H           -6.70017612080031        0.01165225360421        0.00602046004982
H           -5.65471026343339       -0.71586802469049       -2.11467585905939
H           -3.19704084768698       -0.74984584841327       -2.31459175869576
H           -2.43555376189844        2.40773608875507       -0.63204001648734
H           -1.19835475854654        4.52777485329286       -0.78889741641542
H            1.27462382455187        4.51372642084105       -0.86089993736477
H            2.49458826237145        2.37958978380311       -0.77192860490066
H            3.33453419686335       -0.82764876446388       -2.27616547442458
H            5.77758162668834       -0.80764870082545       -1.94393711580887
H            6.71884588385005       -0.02289045722083        0.20305520957239
H            5.21315401264605        0.71207502592200        2.00495007393914
H            2.17037711421522        1.84427129026073        1.81087120068652
H            3.08018577116513        0.83053423712450        2.95119613776045
H            1.57874440104713       -0.85958603749171        2.31892044765835
H            2.47306339256252       -2.56807827609703       -0.57942112292585
H            1.23333137211658       -4.68501276066254       -0.60761028392074
H           -1.24123819821153       -4.67021365231121       -0.55441358614591
H           -2.45264997470415       -2.53508864056537       -0.46703249390872
