52
 energy: -79.291025437025 gnorm: 0.000023993850 xtb: 6.7.1 (edcfbbe)
O           -2.22255295654888       -1.06099882805949        2.42734046440807
C           -2.79812241075144        0.18608312751804        2.09849180608882
C           -3.59027122872946        0.14889070739630        0.81388894424022
C           -4.97758191949451        0.15370316453865        0.83545192173079
C           -5.70625688562588        0.09924216693902       -0.33991351438689
C           -5.04963723261440        0.03419051801014       -1.55676567712162
C           -3.66718673416605        0.02222681490038       -1.59232164644164
C           -2.92944408678504        0.07858879114116       -0.41594974753760
C           -1.44733432409653        0.06329166733161       -0.47636244594241
C           -0.73651079333678        1.26957841759821       -0.44030760702650
C           -1.39931169477939        2.52373365730765       -0.37748567118740
C           -0.69580607369632        3.68734855269945       -0.32807472380628
C            0.71429597476823        3.66958069099018       -0.33882621485511
C            1.38697201142469        2.48860835824263       -0.40377367170325
C            0.69216432262605        1.25174281506123       -0.45908746709478
C            1.37311954531661        0.02959415266654       -0.52016206816977
C            2.85471786426853        0.01015929772016       -0.50901969766433
C            3.56122521070659        0.08385463380690       -1.70202992476978
C            4.94516600304426        0.06638549872036       -1.70163401282278
C            5.63121642176434       -0.02468722330142       -0.50358327827130
C            4.93450012362334       -0.09845642921606        0.69051856360606
C            3.54921156371505       -0.08200562731722        0.69954303837925
C            2.77396713647748       -0.16298823417256        1.98946177409292
O            3.64641309077515       -0.21956938033726        3.09356688739656
C            0.66255242927277       -1.17515705645106       -0.58061930302965
C            1.32596649626840       -2.42835684112256       -0.65223504887682
C            0.62491006018588       -3.59363529076890       -0.69874798351042
C           -0.78503949399583       -3.57876305982784       -0.67791445044236
C           -1.46006485489582       -2.39926902472206       -0.60982223439679
C           -0.76672064402079       -1.15904207911996       -0.55937494583827
H           -1.68944068371065       -1.35984386364491        1.67996083200522
H           -2.01438898104165        0.95711311245200        2.02781997941089
H           -3.45220815550514        0.43318757103790        2.93783321059483
H           -5.48957224364668        0.20065105511579        1.78551687839976
H           -6.78550580676619        0.10598969535773       -0.30563013299661
H           -5.61255665086627       -0.00872303983440       -2.47737865823997
H           -3.14452611658327       -0.02957696857651       -2.53672022916739
H           -2.47976037884005        2.53373414684433       -0.37154207074381
H           -1.21184297059761        4.63498011454627       -0.28077840444344
H            1.25429544279840        4.60393934600705       -0.29673604512384
H            2.46688075237264        2.46945172289621       -0.41564451712679
H            3.01536426435477        0.15502637570707       -2.63206136830129
H            5.48403571763977        0.12408442696386       -2.63587451616109
H            6.71100498201029       -0.03849729388529       -0.49683102870598
H            5.45657925833205       -0.16902392071795        1.63116681422076
H            2.12884733000903       -1.05665154488552        1.96063881150487
H            2.11364464175379        0.71690537692405        2.06309955350179
H            3.12174193581913       -0.28241071338601        3.89737963251505
H            2.40589238234023       -2.43409930916384       -0.67069951717963
H            1.14191895687111       -4.54010766620904       -0.75311496264465
H           -1.32443640856549       -4.51335076909838       -0.71712220579821
H           -2.54052718888025       -2.38665281260528       -0.59753212056803
