92
 energy: -146.876533124877 gnorm: 0.000044353331 xtb: 6.7.1 (edcfbbe)
C           -9.00331318169682       -2.34231265451835        0.01987950103716
C           -7.80286628886916       -2.17166056202161        0.69032176713570
C           -7.16748275023089       -0.94571166121094        0.68789596604556
C           -7.72461985812629        0.13272541209958       -0.00036810804525
N           -7.07956720703198        1.37474198593625       -0.01444933824281
C           -7.82757133699578        2.55577833639448        0.00666298951203
C           -7.41138574253373        3.66836233141875       -0.72529419882185
C           -8.15039820767218        4.83470907454256       -0.69885956766732
C           -9.31502454382312        4.91138480212682        0.04759316154863
C           -9.73430352221370        3.80869086889317        0.77421414643929
C           -8.99875729478738        2.63996114312654        0.76031916746366
C           -5.68423900100977        1.43024820082409       -0.05099759895048
C           -4.98836320706651        2.42169739163019        0.64346506029075
C           -3.61136651085493        2.45282668287248        0.62641727486626
C           -2.87540095086085        1.48659209981570       -0.06460082025016
C           -1.41446039264915        1.48571490526820       -0.01580605936557
C           -0.68119920015452        2.67405252706806        0.00455690511257
C            0.69704657712356        2.67080425067895        0.00960635032928
C            1.42517276527372        1.47918836339741        0.02778224049742
C            2.88627443524583        1.47471038980810        0.07083496757962
C            3.59225754965971        0.50158375387073        0.78135765851211
C            4.96790117869477        0.46960451380196        0.77481035981716
C            5.69516614153550        1.41184750075569        0.04565340750793
N            7.09022288527941        1.35602438427144        0.00474101818035
C            7.83719729459854        2.53789208818570       -0.02462343200306
C            9.00178917943283        2.62168353460749       -0.78837062712806
C            9.73583322663607        3.79124397162305       -0.81107850146592
C            9.32147184326621        4.89496826128481       -0.08320625200830
C            8.16351238826712        4.81851315341115        0.67357639143452
C            7.42611245905809        3.65136653990706        0.70876939268993
C            7.73772530980069        0.11536520779140       -0.00682267982736
C            8.94842012062076       -0.05610183054709        0.66473950480086
C            9.58487532095889       -1.28184641958787        0.64938485426148
C            9.02463205438575       -2.35555882439098       -0.02323414035474
C            7.81965705936593       -2.19190718949136       -0.68725448899063
C            7.18012450724344       -0.96807403487556       -0.68677091364376
C            4.99847792977962        2.40477497109240       -0.64603154032743
C            3.62176820313512        2.43929215381604       -0.62306918866757
C            0.72486400772873        0.26003377117501        0.01749498893109
N            1.36006858403690       -0.91008130436120        0.00498155426212
C            0.71829025762298       -2.06743665370124        0.01617530176329
C           -0.72434846283933       -2.06388977303177       -0.00425888187844
N           -1.36040806325656       -0.90346999658910        0.00816893252197
C           -0.71953289844387        0.26350991016270       -0.00423181945824
C           -1.38234677414819       -3.29994468526010       -0.03120835321890
S           -3.10949739692632       -3.50270929075021       -0.09398580629529
C           -2.91767338695700       -5.22170332759483       -0.09671753884465
C           -1.62591635536698       -5.62218058326128       -0.05525227520317
C           -0.71559370810833       -4.53334249443248       -0.01888761640421
C            0.69677329363741       -4.53691598997025        0.02580336873442
C            1.60145566577678       -5.63052278519138        0.05938309163846
C            2.89527307964304       -5.23685830067925        0.10153330787662
S            3.09594006379023       -3.51887882836462        0.10296011105204
C            1.36986989933974       -3.30695378727656        0.04087590156398
C           -3.58069266382289        0.51611407088190       -0.77948664508612
C           -4.95629798793891        0.48714973626597       -0.77832143162387
C           -8.93078877801335       -0.04567569466926       -0.67811343335400
C           -9.56317401892011       -1.27354282551148       -0.66088057584266
H           -9.49873103875716       -3.30130287169984        0.02671562133493
H           -7.35916760479248       -2.99748318408170        1.22626811744000
H           -6.23640962312433       -0.81537078687125        1.21899270563356
H           -6.51025879884973        3.60632517279367       -1.31759713136435
H           -7.81897709703221        5.68749958379380       -1.27291160937119
H           -9.89175151665030        5.82362082833102        0.06293699105528
H          -10.63764433949158        3.86152303101033        1.36394854612943
H           -9.32148402756673        1.78542194404257        1.33682926206815
H           -5.53857190753348        3.15384325228676        1.21676903423429
H           -3.09557674175272        3.20735191560857        1.20144216931197
H           -1.20932702219009        3.61535890143629       -0.01322952511958
H            1.22942966242601        3.60969171018292        0.02822421223359
H            3.05292872553099       -0.23210870075223        1.35896238882566
H            5.49301038012966       -0.28778570594645        1.33777420499604
H            9.32054758218536        1.76618957085843       -1.36568239612787
H           10.63398008223801        3.84391264707984       -1.40869941520125
H            9.89685042103629        5.80790971633563       -0.10560977958314
H            7.83603978586110        5.67213962468155        1.24864101083108
H            6.53006637418190        3.58948785118095        1.30875035870573
H            9.38103938408790        0.77526793825318        1.20198545201071
H           10.52082669151557       -1.40128821566633        1.17515442085030
H            9.52329075688561       -3.31287445641440       -0.02877055399874
H            7.37561400449056       -3.02169666640368       -1.21675557336985
H            6.24567679291554       -0.84329928162685       -1.21325239348408
H            5.54781181089137        3.13580328297244       -1.22157578467976
H            3.10548282889127        3.19530639452520       -1.19566923446135
H           -3.79580001268403       -5.83641061601850       -0.13003839866891
H           -1.32080897821420       -6.65305826472910       -0.05124421610591
H            1.29096962208800       -6.65978140570228        0.05289543241162
H            3.77020921708890       -5.85618027512061        0.13319215187775
H           -3.04077869109520       -0.21793144199706       -1.35606201888645
H           -5.48103571596436       -0.26867614827930       -1.34372662558248
H           -9.36285667807961        0.78175485975038       -1.22185012886629
H          -10.49548126789788       -1.39865254142165       -1.19178303576276
