92
 energy: -146.915672355785 gnorm: 0.000028841868 xtb: 6.7.1 (edcfbbe)
C           -8.96278992037471       -2.60259275520333       -0.57255112912931
C           -7.74647971893137       -2.54540139205101        0.08818501423841
C           -7.11630508142417       -1.33379958704087        0.29285845834734
C           -7.69425434608092       -0.15329350705232       -0.17529940374051
N           -7.05513765193314        1.07699136282398        0.01949229444971
C           -7.80732127358644        2.22679119709922        0.28176183504502
C           -7.41728260480955        3.45923090848860       -0.24256671544048
C           -8.15897417981049        4.59409756495427        0.02083266801061
C           -9.30161803191687        4.52090759250540        0.80065193439296
C           -9.69549659775072        3.29889424798538        1.32095969353526
C           -8.95594490645268        2.15968626617343        1.07025537908349
C           -5.66062637455573        1.14681882579376       -0.03020118702420
C           -4.95483517913771        1.99422659622478        0.82488690080334
C           -3.57686022559928        2.02185880337988        0.79799124696810
C           -2.85838614890045        1.19788782643040       -0.06747173186978
C           -1.39617411567809        1.16965907373993       -0.03200833486882
C           -0.63393459966125        2.30954213634776        0.08007435777129
C            0.76405541558603        2.26253169493677        0.10331315553638
C            1.46142262693453        1.07770203089901        0.01709925925537
C            2.92551832566295        1.05076883761607        0.02395452289875
C            3.64141861244082        1.89665231515820        0.87158846790906
C            5.01932653893359        1.88639117624559        0.89018632234391
C            5.73055923749645        1.02513897083139        0.05383715473485
N            7.12853697788492        1.01265192857894        0.06957140075751
C            7.84104643261450        0.83292786715012       -1.12070969908722
C            9.02605628860323        0.09722666458333       -1.13275553067378
C            9.73001813766945       -0.06964000396481       -2.30927638028487
C            9.26429371631148        0.48301434167688       -3.49110028361677
C            8.08513839822487        1.21009056889658       -3.48585210772379
C            7.37835673472802        1.38991807551695       -2.31304660353809
C            7.81418304909707        1.18263141157318        1.27759101460862
C            9.00123358889445        1.91353373257386        1.32195077860785
C            9.67503418444622        2.07455880757633        2.51690056214385
C            9.17633164953176        1.52045122270285        3.68448972731792
C            7.99536831324490        0.79715400726130        3.64654307433850
C            7.31846159041050        0.62320073583672        2.45533938152156
C            5.01972490528677        0.17862735420988       -0.79742834143922
C            3.64201504528708        0.19327538550524       -0.81066277228643
C            0.71232471935462       -0.13074274428067       -0.06806207104140
N            1.34936787612136       -1.30581590116949       -0.09249000211751
C            0.63467024990779       -2.41317356619815       -0.14883984425878
C           -0.80381853914978       -2.36270502338203       -0.15376773559129
N           -1.43792917171306       -1.20774903288078       -0.11456090987222
C           -0.71939311107570       -0.08194499123959       -0.08753826807132
C           -1.51865053489383       -3.58583698052724       -0.19269052722669
S           -3.24291605084734       -3.72957983925562       -0.20453493017885
C           -3.10961582148809       -5.44748601202653       -0.26548675394220
C           -1.82816623075123       -5.89054956365989       -0.27635390452010
C           -0.89098201523638       -4.82717911041415       -0.23551350017341
C            0.53548879863534       -4.87869544414175       -0.23655791054431
C            1.38965874114426       -6.00956713614575       -0.27981126858927
C            2.70090985451287       -5.66489770276871       -0.26969096271125
S            2.96300431259863       -3.96240743770403       -0.20617449356570
C            1.25484398285149       -3.68735651951776       -0.19220367938573
C           -3.56993316509061        0.37702609930814       -0.94266433312195
C           -4.94610861090519        0.35586096445841       -0.93118922116642
C           -8.91630608072417       -0.21693070597306       -0.84448735499539
C           -9.54364013241783       -1.43288415622984       -1.03430245110197
H           -9.45444577907751       -3.55112919378141       -0.72730764734661
H           -7.28565219194732       -3.45061293199125        0.45536857732262
H           -6.17199647630433       -1.29504816811324        0.81527854008197
H           -6.53249742797153        3.51644203665249       -0.85965799758259
H           -7.84704821168034        5.54164177846389       -0.39361351279674
H           -9.88076386401547        5.40942754184563        1.00142424343936
H          -10.58177009857781        3.23318180484929        1.93498983852629
H           -9.25951378234362        1.21003289016864        1.48604793134006
H           -5.49564310010105        2.61430368187228        1.52504669185778
H           -3.04562854064896        2.65834716037939        1.49083640811071
H           -1.12396214420164        3.27179488092359        0.11940302907450
H            1.31175829255130        3.19237847842337        0.15754002726185
H            3.10937357550330        2.55882879588438        1.53913511697013
H            5.55736540026080        2.54757396503545        1.55403722577088
H            9.38661468175597       -0.34357053495093       -0.21482482380337
H           10.64540975292895       -0.64315270623473       -2.30446615121678
H            9.81599534264124        0.34813108321330       -4.40906909366886
H            7.71661579740616        1.64928089284298       -4.40138993385907
H            6.46467768974157        1.96611726943414       -2.31013544869619
H            9.38712823266653        2.35522128696093        0.41473769645007
H           10.59223260409205        2.64480678572191        2.53764643211180
H            9.70420957085648        1.65130650730881        4.61695168869691
H            7.60186299346009        0.35663303240607        4.55094440515040
H            6.40326076519162        0.05023620751814        2.42592845761374
H            5.55898779629206       -0.49563763418344       -1.44645425540748
H            3.11069156880175       -0.46733383714409       -1.47614260667298
H           -4.00532382540309       -6.03673245899813       -0.29075023161424
H           -1.55423561833275       -6.92924231860128       -0.31250954017724
H            1.03762338938564       -7.02440430568230       -0.31714727908847
H            3.54989933378043       -6.31958785711096       -0.29635302160851
H           -3.03544338298169       -0.23953564748969       -1.64700907155116
H           -5.48286593735715       -0.28167104149647       -1.61812842511504
H           -9.36631866042438        0.69174314185278       -1.21711543476055
H          -10.48908762945944       -1.46746706820497       -1.55570309658884
