  92
       -146.87131879
 C         -8.9929844430       -2.3383976255        0.1162742877
 C         -7.7948689249       -2.1466298276        0.7855452436
 C         -7.1623521656       -0.9199641100        0.7511446233
 C         -7.7199260481        0.1378980660        0.0313113645
 N         -7.0762013497        1.3795085372       -0.0143333085
 C         -7.8232693063        2.5606611985       -0.0392622885
 C         -7.3981123779        3.6485339701       -0.8026561191
 C         -8.1352308173        4.8162238086       -0.8205189114
 C         -9.3062106757        4.9185645786       -0.0872521121
 C         -9.7342995497        3.8403943282        0.6706601164
 C         -9.0013356577        2.6705009717        0.7006314550
 C         -5.6811737108        1.4341581810       -0.0466480358
 C         -4.9874336652        2.4449299513        0.6230773735
 C         -3.6110889102        2.4740260649        0.6139790520
 C         -2.8697070648        1.4857096971       -0.0431096968
 C         -1.4133470438        1.4759662471        0.0213227853
 C         -0.6703751995        2.6615248957        0.0551770570
 C          0.7055373701        2.6508463576        0.0481818229
 C          1.4328717163        1.4545237515        0.0456543228
 C          2.8902220518        1.4510082864        0.0840933986
 C          3.6066306374        0.4451027654        0.7398175682
 C          4.9816522705        0.4179881945        0.7236235141
 C          5.7027170544        1.4010059211        0.0427468873
 N          7.0972018719        1.3581751001       -0.0030841688
 C          7.8343094066        2.5462483443        0.0211583192
 C          8.9941440619        2.6762055673       -0.7434661648
 C          9.7178888109        3.8520143325       -0.7141282286
 C          9.2982029607        4.9158633935        0.0681073987
 C          8.1452966015        4.7932392661        0.8266903380
 C          7.4177699009        3.6195825062        0.8094524835
 C          7.7567285218        0.1258958284       -0.0719645101
 C          8.9692640356       -0.0634867927        0.5917291561
 C          9.6183040829       -1.2804631720        0.5202845294
 C          9.0693358804       -2.3274373401       -0.2021393191
 C          7.8629632913       -2.1459274983       -0.8589693529
 C          7.2102155737       -0.9304272725       -0.8017702175
 C          4.9977349109        2.4256678224       -0.5936276113
 C          3.6221729369        2.4539441752       -0.5620546965
 C          0.7234457509        0.2374515894        0.0301535526
 N          1.3555262207       -0.9333248132        0.0021789617
 C          0.7021292939       -2.0844834357        0.0184684265
 C         -0.7400386267       -2.0722417994        0.0116156620
 N         -1.3730810172       -0.9104058617        0.0366846291
 C         -0.7209074487        0.2492672483        0.0227175632
 C         -1.4072377377       -3.3040211710       -0.0146871849
 S         -3.1360411383       -3.4955986863       -0.0709782921
 C         -2.9549004342       -5.2159829783       -0.0748012423
 C         -1.6653013083       -5.6247326022       -0.0392834478
 C         -0.7481973634       -4.5418109722       -0.0072889768
 C          0.6646175192       -4.5543842320        0.0288215559
 C          1.5615274089       -5.6540257948        0.0586135318
 C          2.8585141800       -5.2692641359        0.0930133073
 S          3.0713346169       -3.5527111069        0.0914049607
 C          1.3463300148       -3.3286597042        0.0379655159
 C         -3.5752610143        0.5002357404       -0.7406487194
 C         -4.9498940225        0.4719045632       -0.7457008822
 C         -8.9232149714       -0.0619510821       -0.6454716961
 C         -9.5528177116       -1.2904864178       -0.5960198019
 H         -9.4861217660       -3.2980151260        0.1483503089
 H         -7.3517114939       -2.9561241867        1.3461526230
 H         -6.2336996238       -0.7722025925        1.2817848051
 H         -6.4923307642        3.5656073843       -1.3851937214
 H         -7.7970966529        5.6493575593       -1.4189140068
 H         -9.8812698569        5.8317295616       -0.1060369350
 H        -10.6429261065        3.9138110765        1.2498779788
 H         -9.3304451694        1.8354057962        1.3014580589
 H         -5.5404857018        3.1920804391        1.1740670907
 H         -3.0996543959        3.2422023174        1.1744342889
 H         -1.1917251537        3.6067571122        0.0528111126
 H          1.2405479098        3.5879737898        0.0764459593
 H          3.0730450976       -0.3194664481        1.2810740416
 H          5.5121025155       -0.3649098977        1.2452473729
 H          9.3167256516        1.8520591585       -1.3627566166
 H         10.6120048237        3.9412167004       -1.3133587523
 H          9.8654976451        5.8340042373        0.0862322924
 H          7.8140272356        5.6155277948        1.4436749100
 H          6.5255556470        3.5209828263        1.4101469209
 H          9.3924412840        0.7464831556        1.1676863132
 H         10.5550887457       -1.4146769412        1.0408954792
 H          9.5779595844       -3.2781614336       -0.2515778534
 H          7.4286440446       -2.9544583417       -1.4276673950
 H          6.2753990651       -0.7901968166       -1.3236284259
 H          5.5414831740        3.1863186152       -1.1352202186
 H          3.1025086231        3.2352796579       -1.0959377095
 H         -3.8369604796       -5.8253266342       -0.1038572822
 H         -1.3667116178       -6.6576231108       -0.0365899875
 H          1.2439311424       -6.6812257762        0.0555774045
 H          3.7289942511       -5.8950867288        0.1203136344
 H         -3.0334723623       -0.2464339387       -1.2983376540
 H         -5.4724859955       -0.2965383904       -1.2959264961
 H         -9.3551480871        0.7484378149       -1.2143862026
 H        -10.4829493150       -1.4323549747       -1.1264228644
