132
 energy: -192.335883361593 gnorm: 0.000081609949 xtb: 6.7.1 (edcfbbe)
C           -5.07111137975551       -2.07829365218484        4.25528565690807
C           -4.58635640186473       -2.33491498450137        2.82034029444556
C           -5.45013678384149       -1.50340785467568        1.86812857677542
C           -4.76081316807182       -3.82024631983567        2.47514087153735
C           -3.11314769963959       -1.97264057063616        2.73731608975964
C           -2.18737069536698       -2.72552287778821        3.46489955001104
C           -0.84955065247221       -2.39823770950327        3.45200963807859
C           -0.40542332263521       -1.28515043511628        2.74290460871864
C           -1.30134523564467       -0.49183970455886        1.99461272627287
C           -2.64151611933723       -0.89982683171351        2.00033860339936
B           -0.72215239529262        0.75487597715709        1.28796092379030
C           -1.37218996436582        2.03432717211738        0.70916988899214
C           -2.72043559230385        2.40218441297295        0.80887599641678
C           -3.22155153677692        3.61943424180900        0.37532005945502
C           -4.61383895833193        4.11185250193061        0.74616010583071
C           -5.36448201804737        4.69029948014571       -0.45905971541914
C           -4.41753485098123        5.22298653830979        1.79217877422962
C           -5.48861898999886        3.01991228071342        1.37073488948120
C           -2.34652826731107        4.47006432998373       -0.30965602549060
C           -1.00862210045992        4.16173973525677       -0.42514069827377
C           -0.50434491753455        2.99534865726701        0.14631626627061
O            0.85953175937875        2.90903381285733        0.15987502330819
C            1.49278112765733        1.96819983348716        0.89760965857948
C            2.87814992966881        2.08393600020593        1.01313337745476
C            3.59558417758283        1.13634449270651        1.74562024432204
N            5.00110728992150        1.17934806867997        1.79642203480739
C            5.63442531862594        1.79579764659627        0.67233493660042
C            6.07387614587066        3.10576785187558        0.67972640048012
C            6.70753599679810        3.60912443162327       -0.44641209204278
C            6.90678258504587        2.80943681110392       -1.55908672429479
C            6.47187063326890        1.49262819752212       -1.56826037384632
C            5.83043759332928        0.99082294239757       -0.45211295126437
N            5.35599969595708       -0.35695947681331       -0.36636551496829
C            3.98326048029518       -0.51159973427394       -0.63483320926691
C            3.25978269747582       -1.56279429415135       -0.06826348797403
C            1.88220507680659       -1.64534943529818       -0.27135366149564
C            1.18620996248570       -0.69282868750432       -1.02282652357501
C            1.93967072341755        0.33316814251459       -1.60228031755772
C            3.31908731783619        0.42311549683103       -1.42957404134428
O            1.35953197912205        1.30491400732710       -2.33936077977988
C            0.00756717499931        1.35748750477197       -2.52537926095324
C           -0.42910699302115        2.42880933816598       -3.29833260912821
C           -1.76767019096090        2.57513801995276       -3.60099847966404
C           -2.70910635460902        1.67008075421544       -3.11029112452805
C           -4.17633307450414        1.75322098079165       -3.49731427567441
C           -4.57326354690457        3.17314204502160       -3.91609620579816
C           -4.39877501683725        0.80568853259570       -4.68673731055903
C           -5.07066831463365        1.31496795716251       -2.32929082362627
C           -2.25461686991529        0.63245994808532       -2.31049829055658
C           -0.90754028795644        0.41607190701151       -2.00595377990738
B           -0.32908720021868       -0.75541266348466       -1.18405702543748
C           -0.90694623914817       -2.12170090189154       -0.75043382932638
C           -2.12281281618205       -2.67991143801600       -1.15459058873553
C           -2.54919169972885       -3.95251416929486       -0.79930193606058
C           -3.75403087494972       -4.56615286326670       -1.49990747325735
C           -3.35524455828634       -4.76457472008066       -2.97250606748695
C           -4.14739110701994       -5.93136136361990       -0.92755755921047
C           -4.98223403838269       -3.65011476544935       -1.43459267088649
C           -1.76272599789191       -4.66360619171334        0.10947104571796
C           -0.53853665167818       -4.16984012785438        0.51578344726195
C           -0.07233184863806       -2.95095631576370        0.03164467878726
O            1.23378197289270       -2.67326198012198        0.32477882821496
C            5.79996550269925       -0.89759949871951        0.88064931364113
C            6.40622133406005       -2.13421008549138        0.99267189502825
C            6.83504955966666       -2.56272664085301        2.23987470848926
C            6.66827438351233       -1.76047555973772        3.35604130228120
C            6.06493567898893       -0.51658107166152        3.24673723266641
C            5.62639785012954       -0.09098150600802        2.00760072975380
C            2.90533706031603        0.10842784344214        2.38767481221926
C            1.52384830819610        0.00169261956656        2.24199370010886
C            0.78373102282481        0.91483435769174        1.48408238929992
O            0.93411208537752       -1.04577781643041        2.85598771944693
H           -4.95675071973334       -1.02643769284348        4.50899496878576
H           -6.12177455161243       -2.34554906022835        4.35004379293283
H           -4.50116893381894       -2.66360236431342        4.97202872730420
H           -5.10757208034941       -1.60708081667877        0.84207879285408
H           -5.43089248458465       -0.45154597419926        2.14322849332562
H           -6.48354039903426       -1.84166192092086        1.92110597322345
H           -4.23839737512602       -4.04367787412133        1.54862421756139
H           -4.35545445584324       -4.45869656422119        3.25519437938555
H           -5.81581742850460       -4.06241287971544        2.35939578992948
H           -2.50671977059962       -3.57476571772158        4.04801749760252
H           -0.12774715667249       -2.98022995122881        4.00474153898861
H           -3.32134441316762       -0.32974912793570        1.39255347540098
H           -3.37317972852116        1.70874004860701        1.30920655143249
H           -5.54992217113189        3.91869898362286       -1.19975323078868
H           -4.80949027988231        5.49653260036691       -0.92979809213960
H           -6.32337992150450        5.09121682252870       -0.13572718581974
H           -3.87175424385322        4.83964442264396        2.65184840393527
H           -3.85400658809650        6.05345825888855        1.37471113534062
H           -5.38202421612563        5.59563877069543        2.13150840820374
H           -5.60727566708023        2.17464381972033        0.69685072475161
H           -5.06726082954133        2.66962841755175        2.30991042333630
H           -6.47725456587250        3.42441235867772        1.57950186504849
H           -2.69471433109506        5.40828440165444       -0.71293576901642
H           -0.32134103959730        4.84518223314735       -0.89987980398255
H            3.37741943087700        2.89903518851990        0.51431028795554
H            5.91042751840736        3.71996686505947        1.55177257230689
H            7.04911744287368        4.63311113529234       -0.45229254806461
H            7.40378844432101        3.21213016034973       -2.42859990643860
H            6.61340324626118        0.86220007390530       -2.43252670420741
H            3.74330096767661       -2.30637599943141        0.54473891283566
H            3.84761995576117        1.23930695670544       -1.89469348492613
H            0.30282687775137        3.12955349200326       -3.67059968276488
H           -2.06433619200454        3.40273143298733       -4.22329022451877
H           -4.26314869463071        3.89354497630971       -3.16367189238820
H           -5.65309646560627        3.23791174587524       -4.03653894758500
H           -4.12213114180544        3.44341618919243       -4.86742748833129
H           -4.12935593891669       -0.21368530419290       -4.41935512170890
H           -5.44333527639191        0.82177309421399       -4.99159263536430
H           -3.78479891774740        1.10696125828491       -5.53277982704468
H           -4.73378224435987        1.78269124205220       -1.40794410738448
H           -6.10395054732119        1.60079239119143       -2.51742349517846
H           -5.05110988139521        0.23653793739735       -2.19561138342071
H           -2.96339273128731       -0.05914746390569       -1.88950958106530
H           -2.72259566859646       -2.09809713688562       -1.83521684327342
H           -4.16843882272108       -5.23345836699356       -3.52312817859540
H           -2.47686686493720       -5.40280684038123       -3.04236757788743
H           -3.12115890721955       -3.81376175115843       -3.44409228818888
H           -4.39623064456349       -5.86207768390288        0.12867411758655
H           -3.34604670792531       -6.65485687058682       -1.05615034634561
H           -5.02271429002581       -6.30594146770015       -1.45490642931490
H           -5.31465285863505       -3.52936264909540       -0.40771097029688
H           -4.77128033635115       -2.66820718279897       -1.84821075568156
H           -5.79786742740111       -4.08658926168246       -2.00806849409598
H           -2.07097777885886       -5.62911358820538        0.47525481960230
H            0.10042205812404       -4.74878955353537        1.16491169870066
H            6.52835331580212       -2.75149485888130        0.11605062427065
H            7.30442540303465       -3.52981270906881        2.33832366779460
H            7.00893705940155       -2.10413277590640        4.32096410700449
H            5.92126066971067        0.11390820955264        4.11060833890444
H            3.42242053852019       -0.63092853685852        2.97744098383827
