132
 energy: -192.422363518921 gnorm: 0.000050521314 xtb: 6.7.1 (edcfbbe)
C          -11.38055294216273       -1.86403184246510        2.91976149530716
C          -10.86853596594953       -2.96586415258660        1.98122410892710
C          -11.63612802177710       -2.91397832774437        0.65236926931102
C          -11.14665817080240       -4.32037308157075        2.63838447329113
C           -9.38804602288286       -2.73947996860834        1.71203434438754
C           -8.40309714016521       -3.66480049049536        2.05801813405530
C           -7.07344203213234       -3.40160212340678        1.81700021088321
C           -6.68443833624954       -2.21052117144493        1.20612497364479
C           -7.64444491997937       -1.26478763119691        0.80172673007297
C           -8.97776738736957       -1.56826683341427        1.09813543674521
B           -7.12288232042363        0.00307034713357        0.08223858505400
C           -7.82950207616022        1.18327210742924       -0.62724900903518
C           -9.20125391368855        1.28916528550568       -0.89914390680916
C           -9.78069508474490        2.38501734103041       -1.50743112512871
C          -11.27146099987365        2.48459573244478       -1.79341638682120
C          -12.04927249597208        1.25359518305821       -1.31869138452193
C          -11.47956865475200        2.62766184142889       -3.30757267998516
C          -11.83955932510977        3.71452124378061       -1.07130653096046
C           -8.93916226957023        3.44124036817150       -1.87181324143939
C           -7.58432282173065        3.37556746290838       -1.65533017718385
C           -7.02017493944703        2.25165049623980       -1.04910859427607
O           -5.66381934661122        2.29577717063190       -0.92642747403053
C           -4.96010321527158        1.24982302237456       -0.44015438192409
C           -3.57479803957712        1.35641191198785       -0.45028049366834
C           -2.80691152962049        0.30250078931857        0.03118538727612
N           -1.39734590942088        0.39147907605720        0.01205705145455
C           -0.71549674562475        0.39994166256543       -1.20514597593077
C           -1.39399216768449        0.35069610772719       -2.41412275116395
C           -0.71013456384302        0.39868808150308       -3.62124267100966
C            0.66321108562540        0.50498228034412       -3.62714327581249
C            1.35814648966224        0.51882996098763       -2.42569186791639
C            0.69073834868626        0.43294615898992       -1.21260153244621
N            1.39291687410091        0.40369653532950       -0.00714924734468
C            2.80322845442923        0.32624289688178       -0.02561122303450
C            3.56173771668877        1.38915984234374        0.45132185972492
C            4.94779859449691        1.29373772134538        0.44406128512855
C            5.59903203275475        0.15561134306861       -0.05669768709662
C            4.80359131216893       -0.89338838654490       -0.54400583930245
C            3.41705195483812       -0.81863517999795       -0.52131601974989
O            5.35482054721486       -2.02416636774801       -1.03725780341048
C            6.70252835109138       -2.15592530460913       -1.19288879695188
C            7.10494350643165       -3.34273178396950       -1.80338990934582
C            8.43657156217766       -3.58496043327689       -2.05595884172871
C            9.41007643030841       -2.64233644050841       -1.72409211468747
C           10.89047523120116       -2.84260115148332       -2.01369300167970
C           11.36803489649541       -1.73382743415798       -2.96234244935510
C           11.67644358008681       -2.77341230349091       -0.69643512860897
C           11.18400937796431       -4.19345462232697       -2.67160228221535
C            8.98726459982426       -1.47764573274996       -1.10650128782409
C            7.65236643901494       -1.19695372780015       -0.79621278846443
B            7.11922092926873        0.06095124798069       -0.07003393946320
C            7.81599827115169        1.24099940119398        0.64800188764353
C            9.17993337285255        1.35128654119795        0.93845719805537
C            9.75418776633600        2.45114937064874        1.55254963088481
C           11.25206908927870        2.46277783021998        1.82042122615873
C           11.72288649245545        3.76420553038596        2.47491914906767
C           11.59960522422296        1.30004741461851        2.76103192290907
C           12.00411808934396        2.29858042250101        0.49183391792579
C            8.91107629006549        3.50632022554556        1.90209511280263
C            7.55603386185004        3.43384212936968        1.66866006227385
C            6.99938955630828        2.30954769302671        1.06097688364131
O            5.64343550019240        2.34743709927244        0.92575543870467
C            0.71108515678348        0.40894947113674        1.21003453223907
C            1.39026695837737        0.36858306354446        2.41895074209012
C            0.70626189102781        0.41328884358550        3.62608728579246
C           -0.66795775974999        0.50754918326627        3.63190600496782
C           -1.36319652095142        0.51263824963290        2.43055931672142
C           -0.69536736245296        0.42965863414464        1.21748323217431
C           -3.41155777907036       -0.84446629058247        0.53320399930243
C           -4.79742391815391       -0.93023614023669        0.55769322468630
C           -5.60284763410419        0.10957933507320        0.06672719393053
O           -5.33756350836379       -2.06287651975277        1.05786041010490
H          -12.43738566449864       -2.01286390436469        3.13135131794937
H          -10.83346330666690       -1.88698651883088        3.85993812609550
H          -11.25676342122542       -0.87844782094753        2.47946494521942
H          -11.25261399788443       -3.66691265830132       -0.03306619080300
H          -11.54365946750529       -1.94173941260231        0.17677947672875
H          -12.69305991556547       -3.10828131627020        0.82239302383838
H          -10.81888868436185       -5.13878547725159        2.00150903714390
H          -10.65059498209514       -4.39722123945864        3.60311680748822
H          -12.21676776022340       -4.43074706061262        2.80252074413025
H           -8.66129399793673       -4.59761358358453        2.53149141258024
H           -6.30780033654685       -4.10651980448227        2.10343185744253
H           -9.72013649957318       -0.83080502012277        0.84291552669623
H           -9.81659000899243        0.45063096764379       -0.62747291705675
H          -11.70530612107887        0.35326207998978       -1.82296392423688
H          -13.10524089258232        1.38238980647684       -1.54795981455911
H          -11.95484343577633        1.12260951259000       -0.24289316774305
H          -11.06220119459864        1.76749502032039       -3.82703620566473
H          -12.54152671659333        2.68777218965482       -3.53656827835830
H          -10.99787883129223        3.52299639095127       -3.69056354573039
H          -11.67140010902953        3.63239295740843        0.00060309419716
H          -11.37202772618483        4.63108030378960       -1.41971035643042
H          -12.91040871384264        3.79126111877796       -1.24800667117200
H           -9.34422346327647        4.32324257243105       -2.34397175244081
H           -6.93138846656817        4.18087341952006       -1.95567267040843
H           -3.10584658192633        2.24811773689073       -0.83447202898424
H           -2.46922611214302        0.27014985750363       -2.41824679384108
H           -1.26439600413696        0.36034745001457       -4.54632077078819
H            1.20796998210213        0.56883947035299       -4.55640053765129
H            2.43394351826739        0.59473147346857       -2.43525245138397
H            3.08457590375434        2.27867006113846        0.83046758636520
H            2.82643316404624       -1.64076198353212       -0.89275239272573
H            6.34838263709835       -4.06056015555566       -2.08173050177246
H            8.70537303693720       -4.51504697062807       -2.52890847012269
H           10.80845753885479       -1.77055172928430       -3.89466833934695
H           12.42451218459464       -1.86271134832046       -3.18830877864258
H           11.23119363060462       -0.74908205722880       -2.52385880363005
H           11.31756852383682       -3.53165570027591       -0.00354245652213
H           12.73435471067563       -2.94754946169721       -0.88152468728284
H           11.57217732260202       -1.80204719540406       -0.22125645617336
H           10.67437740107727       -4.28227170932475       -3.62816706444471
H           12.25329641787890       -4.28393017914687       -2.85240104116138
H           10.88183435877779       -5.01613500765146       -2.02759832263599
H            9.71816800944146       -0.72515446522842       -0.86127579178939
H            9.80710293387456        0.51426719484863        0.68037381164233
H           12.79814770549307        3.72036257242165        2.63661229557784
H           11.24517628823586        3.91221332989627        3.44058713072049
H           11.51409990692752        4.62040430601744        1.83759428037507
H           11.33621116375406        0.34146576256219        2.32230297498400
H           11.06016329156357        1.40270720631003        3.70027736623597
H           12.66654501504390        1.29592923028445        2.97419543357601
H           11.73584232724114        3.09935158662317       -0.19416913207488
H           13.07811048937985        2.33481779397227        0.66207525012908
H           11.76952127137287        1.35054455057071        0.01602640035428
H            9.30090212037038        4.39287399140547        2.37440883284299
H            6.89945910347611        4.23928863195704        1.96075438938408
H            2.46618352383753        0.29769621994307        2.42296420993586
H            1.26099389195358        0.38196397920218        4.55114472434362
H           -1.21313862123968        0.56870964260163        4.56109235377250
H           -2.43958662215019        0.57927592260186        2.44034330530355
H           -2.81449571089072       -1.66030074499652        0.90821370353074
