132
 energy: -192.351106275509 gnorm: 0.000094689867 xtb: 6.7.1 (edcfbbe)
C           11.16250525046921        4.53739849684384        0.88974960113944
C           10.99750205664080        3.47190585115269       -0.20298191639584
C           11.89416524889944        2.28223291034724        0.15195909554787
C           11.46544044859123        4.03450144124340       -1.55254002730645
C            9.52756109636225        3.09266254173786       -0.30648546179549
C            8.58868515542429        4.07388992903768       -0.63156936054333
C            7.24716633840453        3.77040067388052       -0.70897972145694
C            6.80615423927617        2.47043839252498       -0.48010283597002
C            7.71428745506393        1.43791946304348       -0.18880598225248
C            9.06456760191609        1.80780149545370       -0.09239384430352
B            7.13417411083638        0.01738879013265        0.00686082250418
C            7.78069083390187       -1.37417044097712        0.20172748057387
C            9.14686118026604       -1.67974387466922        0.10397984611533
C            9.67030790544814       -2.94131291080397        0.31709196469131
C           11.15647617524397       -3.25042225702330        0.21199920332700
C           11.99542315855860       -2.01943633132182       -0.14321987578659
C           11.37075982128436       -4.30626148759032       -0.88155460363031
C           11.65199648419150       -3.79075061589905        1.56080260534613
C            8.77908987042533       -3.96598864486028        0.64234088310688
C            7.42478333639573       -3.72626397078160        0.72122424505735
C            6.92255887788809       -2.44845979926445        0.49367214679516
O            5.55710767360944       -2.35500994090610        0.57463522435164
C            4.91022559436515       -1.20407555915258        0.29205855422045
C            3.52071566135630       -1.24466592941122        0.30088703596659
C            2.81501098054977       -0.08342940451104        0.01314625810150
N            1.38821770805001       -0.11306172144750        0.01551017714287
C            0.71733228542247       -0.05930721510725        1.20878537675271
C            1.39462987965747        0.02073858490824        2.43019622488054
C            0.70190041694278        0.05280587616728        3.61610525318126
C           -0.70257951629742        0.00247747604622        3.61720070204152
C           -1.39396294278112       -0.05728231360609        2.43193765684782
C           -0.71517588313350       -0.07502783334801        1.20833610315061
N           -1.38575483109577       -0.10860004171850        0.01420409102350
C           -2.81227495478824       -0.07513813732759        0.01344095741169
C           -3.52082427294173       -1.25168696554490       -0.19515204679860
C           -4.91013535313141       -1.20696060891147       -0.19141631437191
C           -5.60537927760177       -0.00287104011744        0.00926464732941
C           -4.84949818580880        1.16361660025626        0.21381022302229
C           -3.45993878363299        1.13599365527512        0.22140603826571
O           -5.43809001867428        2.36143316012361        0.41861262829276
C           -6.79748202671662        2.51748417831864        0.32933437299529
C           -7.23668105910176        3.82810437229999        0.47364559382857
C           -8.57975758556364        4.13438665137181        0.37767045251456
C           -9.51654985039874        3.13791265385344        0.11556225358503
C          -11.00527852529676        3.41805547161104       -0.03047989189021
C          -11.45415766747625        3.01447141692544       -1.44206684424531
C          -11.77803059613094        2.59911585222338        1.01341800775953
C          -11.34945904249737        4.89563072919766        0.17554265904171
C           -9.05280656727241        1.83835006275923       -0.01696771413826
C           -7.70815351304517        1.46839764292084        0.10421483814223
B           -7.13065235843604        0.03682022317158        0.00542955081832
C           -7.78056402691536       -1.36268068418104       -0.09394972530365
C           -9.14771495398409       -1.65615628498084        0.02308781671594
C           -9.67576981400769       -2.92723377692792       -0.10416976230208
C          -11.16344675520816       -3.22241298542933        0.01837739733697
C          -11.99840808815767       -1.96577223490477        0.28178536979076
C          -11.65763964594261       -3.85606194503455       -1.28975082246054
C          -11.38500127690428       -4.19631569722697        1.18403842918945
C           -8.78755040002510       -3.97487930837068       -0.35634997883545
C           -7.43215834546092       -3.74588208224520       -0.44931901878682
C           -6.92561789385659       -2.45715928553670       -0.31017475598564
O           -5.55989643803876       -2.37304173322657       -0.39561878271808
C           -0.71467122561740       -0.15902168908438       -1.17928714863758
C           -1.39114032291712       -0.17925574380433       -2.40366617866813
C           -0.69793649993656       -0.25033110064917       -3.58759260185937
C            0.70632735642869       -0.30567669289251       -3.58386195233172
C            1.39711226956840       -0.26697382905511       -2.39738054679722
C            0.71774945291023       -0.17949414354168       -1.17717328009774
C            3.46534455713540        1.10895801886923       -0.27765998611639
C            4.85505564894787        1.13314197474044       -0.27357232471536
C            5.60844431415159       -0.01854813474459        0.00832773925264
O            5.44655606975816        2.31280028544961       -0.55884605976996
H           10.81494500140982        4.15109527037488        1.84576869349619
H           12.21000262273175        4.81494514788198        0.98924420323513
H           10.59361852644333        5.43356308218929        0.65811399659706
H           11.83494841196663        1.50664422954707       -0.60811035670914
H           11.62152133757424        1.86052016158406        1.11670653912707
H           12.92899009914449        2.61407262586545        0.21177342569334
H           12.52080800298119        4.29547105063195       -1.50516446034212
H           11.32774572769245        3.29248503029043       -2.33638944985912
H           10.90725690124771        4.92552915680793       -1.82589360394559
H            8.89876072371870        5.09120754297904       -0.81530314957701
H            6.51710335158107        4.53137949370486       -0.94021034182888
H            9.76122754128268        1.03623940101848        0.18076629044762
H            9.80591285997566       -0.87596376328653       -0.16957681441234
H           11.90046938052744       -1.24802247375105        0.61746742593988
H           11.70196125096310       -1.61044938140157       -1.10733485585934
H           13.04473680562724       -2.30184755808525       -0.20448455057072
H           10.84539177783812       -5.22853850488300       -0.64968532009848
H           11.00410823721448       -3.93650034881315       -1.83698953108757
H           12.43014637216018       -4.53368316496358       -0.98237014417175
H           11.48080814164262       -3.05619722473235        2.34509275130014
H           11.13651216894664       -4.70700401667377        1.83460297376838
H           12.71835768230069       -4.00202314147867        1.51191130292664
H            9.13707042195992       -4.96759662340111        0.82531303750821
H            6.73180797537928       -4.52105201970275        0.95285948275135
H            3.00607509562421       -2.16567286229113        0.52309991317789
H            2.47236458823943        0.05508891890603        2.42731959410593
H            1.23716008737163        0.11301300891185        4.54989367660974
H           -1.23882165723785        0.01466990844906        4.55231253312229
H           -2.47172352851682       -0.09121300210631        2.43038557568959
H           -3.00830728698996       -2.18709297133186       -0.35278447311932
H           -2.90018226463181        2.04351106163255        0.38148356402971
H           -6.50543682499647        4.60129847287762        0.65564482738643
H           -8.87830631397202        5.16249122095232        0.49876445646619
H          -10.90371836998991        3.58378028717225       -2.18827729258905
H          -12.51640323595860        3.21319499081787       -1.56983723170836
H          -11.28022942219824        1.95783508957749       -1.62581660073426
H          -11.43855158944794        2.85206959682485        2.01575110874493
H          -12.84281413821597        2.81283888015286        0.94498406210665
H          -11.63707466101564        1.53229623282015        0.86549685392146
H          -10.85184883678277        5.52033320432104       -0.56261595468152
H          -12.42297235502542        5.03717181247712        0.06547103732484
H          -11.06739090006782        5.22714197427598        1.17225121663810
H           -9.75983198672289        1.05782843821407       -0.24227774675856
H           -9.80312657240593       -0.83280048770492        0.24162288487585
H          -13.04936787097283       -2.23845838904718        0.35737151940319
H          -11.89620407745529       -1.25127459976181       -0.53206932109247
H          -11.70791577856892       -1.49061828705423        1.21612743640725
H          -11.14555648751662       -4.79182579257668       -1.49535819846139
H          -11.48083610574053       -3.18064812491457       -2.12438546154331
H          -12.72509152493730       -4.05870961880772       -1.22921105703682
H          -10.86184349891352       -5.13437402188324        1.02048203416985
H          -11.02021381108422       -3.76015407742954        2.11175980392087
H          -12.44547430685630       -4.41260729854923        1.29715496912633
H           -9.14883136230593       -4.98550839917647       -0.47015306980515
H           -6.74188293557018       -4.55736777682424       -0.62415690859981
H           -2.46867327895969       -0.13978677354227       -2.40479748110667
H           -1.23279658978594       -0.26694639705886       -4.52340055970553
H            1.24281558925644       -0.37431964906471       -4.51638478125469
H            2.47480091244269       -0.30332780038190       -2.39206947551705
H            2.90774679363501        2.00494878988891       -0.49852768035637
