  132
       -192.42687483
 C         -5.3747742119       -1.1844793982        3.7396961936
 C         -5.1203808110       -1.9151315370        2.4114904489
 C         -5.9653796709       -1.2578977259        1.3120472158
 C         -5.5844793252       -3.3673013025        2.5593513081
 C         -3.6290969316       -1.8029940315        2.1192265133
 C         -2.7412724728       -2.8609229887        2.3213754418
 C         -1.3826536307       -2.6819407204        2.1898931735
 C         -0.8584230772       -1.4295848029        1.8723715735
 C         -1.7152914616       -0.3457138113        1.6100482215
 C         -3.0874350149       -0.5874764084        1.7363250270
 B         -1.0495261511        1.0002460233        1.2341231897
 C         -1.6029586064        2.4227738417        0.9722789444
 C         -2.9053325905        2.8749225709        1.2263046024
 C         -3.3468230284        4.1511956045        0.9332372865
 C         -4.7377097805        4.6546446547        1.2934935009
 C         -5.4766067711        5.1085960503        0.0275508728
 C         -4.5862873659        5.8421229972        2.2559246408
 C         -5.5946160975        3.5902550986        1.9858030815
 C         -2.4424816018        5.0143705048        0.3064004442
 C         -1.1408036124        4.6362860888        0.0817858733
 C         -0.6994939926        3.3657078878        0.4553811411
 O          0.6405166072        3.1644496936        0.3168173730
 C          1.2321017465        2.0342215864        0.7718647586
 C          2.6165322559        2.0162375655        0.8137663044
 C          3.2828373697        0.8797335233        1.2751155579
 N          4.6735744887        0.8493338727        1.3117693729
 C          5.4357229902        1.6807499228        0.4493436528
 C          5.6510571145        3.0286496475        0.6779501438
 C          6.4625817068        3.7404057097       -0.1925305448
 C          7.0697909683        3.1133763600       -1.2669703043
 C          6.8709586569        1.7593008320       -1.4933924899
 C          6.0499916919        1.0518391788       -0.6395542617
 N          5.7785982597       -0.3472344962       -0.7922865863
 C          4.4529953604       -0.6099015478       -1.1995693277
 C          3.8832931746       -1.8473308028       -0.9067234959
 C          2.5265302589       -2.0435113816       -1.1065753799
 C          1.6968007505       -1.0234286763       -1.5960694475
 C          2.3188497721        0.1788688390       -1.9623705833
 C          3.6813886724        0.3783503445       -1.8057816991
 O          1.6036275956        1.2236511785       -2.4336680045
 C          0.2416497480        1.2077383389       -2.4405580053
 C         -0.3415757441        2.4075465590       -2.8428015107
 C         -1.7095043962        2.5311973265       -2.9202371327
 C         -2.5402106206        1.4640415163       -2.5817325906
 C         -4.0544140107        1.5280987709       -2.7126837097
 C         -4.5421298080        2.9017862287       -3.1800628186
 C         -4.5032483625        0.4824416267       -3.7442586703
 C         -4.6978902886        1.2255069088       -1.3549635552
 C         -1.9383684319        0.2950843973       -2.1469457564
 C         -0.5540782020        0.1055063166       -2.0777975177
 B          0.1876028552       -1.1915265251       -1.6618329392
 C         -0.2819272565       -2.6265890039       -1.3082070644
 C         -1.5856505927       -3.1281854276       -1.4129733125
 C         -1.9407559748       -4.4269952594       -1.1004646602
 C         -3.3566381669       -4.9480862317       -1.2950501907
 C         -3.4045160153       -5.7006589101       -2.6328233255
 C         -3.7450786251       -5.9052692287       -0.1599548495
 C         -4.3780616020       -3.8061968769       -1.3246307260
 C         -0.9316841050       -5.2824832049       -0.6525044392
 C          0.3647456311       -4.8430530208       -0.5358055317
 C          0.7009238379       -3.5311678164       -0.8710437031
 O          2.0256159496       -3.2447600715       -0.7451561414
 C          6.0360248223       -0.9460535473        0.4892564226
 C          6.8487362556       -2.0453607582        0.6726600925
 C          6.9768376892       -2.5797876986        1.9466357102
 C          6.2974929386       -2.0186406475        3.0149571788
 C          5.5015294440       -0.8978700287        2.8383540271
 C          5.3757554694       -0.3545972447        1.5711672094
 C          2.5454205830       -0.2451107382        1.6484586903
 C          1.1616791802       -0.2219932045        1.5656084204
 C          0.4652733195        0.9292122929        1.1692894490
 O          0.5033052324       -1.3615008932        1.8830495752
 H         -5.0898873660       -0.1378656091        3.6647936372
 H         -6.4286910946       -1.2384754788        4.0049729223
 H         -4.7925171332       -1.6383132384        4.5388993662
 H         -5.7458643129       -1.6952677097        0.3414813966
 H         -5.7906334042       -0.1877635360        1.2557613330
 H         -7.0223234018       -1.4092126525        1.5219611829
 H         -5.3620239259       -3.9399095903        1.6627549026
 H         -5.1150003691       -3.8472129874        3.4144207089
 H         -6.6608397022       -3.3907602240        2.7186730368
 H         -3.1008265468       -3.8379420849        2.6003457368
 H         -0.6989306248       -3.5011152647        2.3518144215
 H         -3.7506593739        0.2359256556        1.5355136678
 H         -3.5713672998        2.1848776883        1.7137523317
 H         -5.6241689723        4.2668690471       -0.6444595817
 H         -4.9227274426        5.8786855421       -0.5021537906
 H         -6.4521458381        5.5129937048        0.2900580548
 H         -4.0453373589        5.5352402800        3.1487414590
 H         -4.0410372314        6.6594163174        1.7922369240
 H         -5.5652515751        6.2113637344        2.5547984252
 H         -5.7550484913        2.7314186455        1.3380305358
 H         -5.1339094970        3.2587239269        2.9136070135
 H         -6.5683522906        4.0120328142        2.2273419615
 H         -2.7481364783        6.0093853318        0.0194544053
 H         -0.4301496708        5.3209734415       -0.3554134905
 H          3.1562786512        2.8819566278        0.4690571578
 H          5.1949644952        3.5119903392        1.5284115454
 H          6.6272045675        4.7936939685       -0.0221548033
 H          7.7024631277        3.6791672686       -1.9337183104
 H          7.3300450199        1.2565759042       -2.3301771001
 H          4.4683304325       -2.6398676378       -0.4693138870
 H          4.1018358475        1.3333582884       -2.0762762077
 H          0.3064100960        3.2328866105       -3.0956169343
 H         -2.1189354090        3.4728148125       -3.2460454558
 H         -4.2270637706        3.6798149339       -2.4889110913
 H         -5.6298369497        2.9063282755       -3.2266965218
 H         -4.1648154799        3.1337313064       -4.1733592472
 H         -4.2353844168       -0.5217965462       -3.4276732921
 H         -5.5827110776        0.5231017304       -3.8762147591
 H         -4.0300262869        0.6730655425       -4.7052736844
 H         -4.3546124569        1.9511145955       -0.6218164645
 H         -5.7828287077        1.2803020997       -1.4309323653
 H         -4.4299220494        0.2330610617       -1.0052952133
 H         -2.5642421458       -0.5261554573       -1.8404584801
 H         -2.3369876023       -2.4540534140       -1.7823433601
 H         -4.4030582521       -6.0955056028       -2.8091776104
 H         -2.6989289792       -6.5284989651       -2.6324698255
 H         -3.1444853783       -5.0335933953       -3.4522257450
 H         -3.5428119586       -5.4476785659        0.8052308091
 H         -3.1977335982       -6.8416998038       -0.2204699557
 H         -4.8056993873       -6.1424688180       -0.2183045195
 H         -4.2377526921       -3.1588796913       -0.4617334217
 H         -4.2852478056       -3.2142765890       -2.2321577411
 H         -5.3884996719       -4.2102751441       -1.2999969747
 H         -1.1520034557       -6.3084076694       -0.4034320231
 H          1.1494310078       -5.5043800844       -0.2002661940
 H          7.3525575189       -2.4860738951       -0.1735038686
 H          7.6035576269       -3.4447083654        2.1019594415
 H          6.3953685240       -2.4502832408        3.9996219575
 H          4.9802328126       -0.4473796217        3.6691604579
 H          3.0340027344       -1.1531514618        1.9618950213
