  128
       -198.56404741
 C         -9.1236884067        4.0607802433        2.9171761372
 C         -7.5960857409        4.0857499488        3.0157283818
 C         -7.2063139038        3.9181151448        4.4916171164
 C         -7.1053155462        5.4462779206        2.4999143890
 C         -6.9344100050        2.9828546571        2.2103453036
 C         -5.5418703229        2.8873559548        2.1826144100
 C         -4.9106730476        1.8965729948        1.4729450086
 C         -5.6458475600        0.9391418643        0.7605028989
 C         -7.0445418613        1.0275588298        0.7537994270
 C         -7.6492670937        2.0439695549        1.4793652075
 C         -7.9046252918        0.0664038094       -0.0388371917
 C         -8.6929350698        0.8706941135       -1.0903512156
 C         -8.8708612079       -0.6468908465        0.9261252284
 C         -7.0751446701       -0.9807846871       -0.7504876017
 C         -7.7076247944       -1.9458846278       -1.5208300687
 C         -7.0228274972       -2.9533547364       -2.1865402915
 C         -7.7139675368       -4.0018286778       -3.0386049073
 C         -9.2263745439       -3.7850240047       -3.1385436903
 C         -7.1301761707       -3.9549046230       -4.4581190189
 C         -7.4648505041       -5.3848581973       -2.4194957265
 C         -5.6349872847       -2.9883461718       -2.0370668325
 C         -4.9764842893       -2.0452014919       -1.2885646157
 C         -5.6777824603       -1.0131688342       -0.6497692435
 N         -4.9930781115       -0.0599803054        0.0716330014
 C         -3.5785056757       -0.0870499248        0.0718747094
 C         -2.8440076119        0.3284505518       -1.0553690986
 F         -3.5338745719        0.7825924262       -2.1234016808
 C         -1.4745465451        0.3183770524       -1.0627849539
 F         -0.8299935582        0.8282312649       -2.1293166745
 C         -0.7143214159       -0.1089650561        0.0626051923
 C          0.7151548074       -0.1068056643        0.0577967129
 C          1.4801380200        0.3494900203        1.1681176584
 F          0.8395859623        0.8715668680        2.2310038189
 C          2.8498169100        0.3747207003        1.1480842429
 F          3.5436229617        0.8576345093        2.2006236309
 C          3.5783059738       -0.0555811554        0.0228031591
 N          4.9922899650       -0.0061553723       -0.0047594670
 C          5.6109569442        0.9874890190       -0.7318196675
 C          4.8416238747        1.9465911890       -1.4049193762
 C          5.4367902399        2.9290138733       -2.1560461417
 C          6.8258573266        3.0121770050       -2.2688595960
 C          7.4462652007        4.1022507576       -3.1230855954
 C          6.9435481089        3.9451276358       -4.5656598440
 C          8.9762201701        4.0463985041       -3.1412226938
 C          7.0222030727        5.4710590534       -2.5709627382
 C          7.5761257209        2.0748160967       -1.5722346298
 C          7.0081365760        1.0681818413       -0.8045804387
 C          7.9059397349        0.1043813708       -0.0585200250
 C          8.8059365432       -0.6234057860       -1.0755246468
 C          8.7635871177        0.9079946305        0.9380480438
 C          7.1116604907       -0.9304410593        0.7094539153
 C          7.7817077844       -1.8966833986        1.4459783688
 C          7.1303659889       -2.8936651341        2.1590940411
 C          7.8633066932       -3.9453150855        2.9713624074
 C          9.3845576412       -3.7768522222        2.9295413357
 C          7.4097770810       -3.8452710725        4.4350669627
 C          7.5189808227       -5.3342652375        2.4140251678
 C          5.7353945297       -2.9113997877        2.1027377844
 C          5.0405358178       -1.9691704718        1.3865160732
 C          5.7106276828       -0.9532008967        0.6912793050
 C          2.8391688022       -0.5224186217       -1.0806524719
 F          3.5248043326       -0.9818679228       -2.1488514898
 C          1.4698144350       -0.5490034696       -1.0658801477
 F          0.8215818165       -1.1026376135       -2.1080943584
 C         -1.4740725589       -0.5303802536        1.1905397543
 F         -0.8296806927       -1.0492288133        2.2527375061
 C         -2.8441553257       -0.5194229536        1.1924492632
 F         -3.5333486181       -0.9620635207        2.2655362150
 H         -9.5366397376        4.8726309700        3.5121172834
 H         -9.5269970613        3.1270088233        3.3021405482
 H         -9.4528893403        4.1991134245        1.8897936809
 H         -7.5356968303        2.9488123147        4.8602815154
 H         -6.1306379989        3.9855200267        4.6272910934
 H         -7.6755123122        4.6943985533        5.0919351699
 H         -6.0305127673        5.5509790111        2.6147087265
 H         -7.5859001368        6.2498166712        3.0536259930
 H         -7.3486047509        5.5594383408        1.4455329461
 H         -4.9344359928        3.5972779434        2.7211551915
 H         -3.8331045958        1.8583123759        1.4629592458
 H         -8.7241490068        2.1004196225        1.4670492595
 H         -9.3022739308        1.6349504946       -0.6165951261
 H         -9.3472115539        0.2207705074       -1.6641430985
 H         -8.0021356280        1.3566888585       -1.7761621344
 H         -9.5058562798       -1.3474583004        0.3916397998
 H         -9.5092191838        0.0690681904        1.4351937841
 H         -8.3045549324       -1.1971028782        1.6746228487
 H         -8.7801226765       -1.9031401991       -1.6004537090
 H         -9.6592870122       -4.5522994259       -3.7769685105
 H         -9.4543247974       -2.8164793848       -3.5779715441
 H         -9.7006200266       -3.8585233912       -2.1624059485
 H         -6.0677350646       -4.1797298243       -4.4596409969
 H         -7.2697385880       -2.9661799840       -4.8899135460
 H         -7.6321057147       -4.6829067546       -5.0916553434
 H         -7.8643831925       -5.4225574618       -1.4081050695
 H         -7.9547936772       -6.1531212791       -3.0136444354
 H         -6.4037035147       -5.6128997913       -2.3750571828
 H         -5.0536007998       -3.7629193758       -2.5114515689
 H         -3.9042477406       -2.1020539624       -1.1873362295
 H          3.7662500440        1.9154989135       -1.3310108753
 H          4.8037893000        3.6415383720       -2.6606060596
 H          5.8629428801        4.0380064625       -4.6218434204
 H          7.3848695035        4.7106785052       -5.2000263558
 H          7.2220334043        2.9688927502       -4.9568193972
 H          9.3866249935        4.1873697146       -2.1437590467
 H          9.3586444869        4.8439354288       -3.7747256225
 H          9.3293452115        3.1005451951       -3.5458689377
 H          7.3515250561        5.5798489137       -1.5396844509
 H          7.4700825480        6.2664593349       -3.1625354327
 H          5.9433502022        5.5931997735       -2.5987204568
 H          8.6502319726        2.1236064086       -1.6234566762
 H          9.4661488092       -1.3262963142       -0.5759251599
 H          8.1906039238       -1.1729406129       -1.7848895256
 H          9.4185136149        0.0838410314       -1.6269726885
 H          8.1198552673        1.4060589146        1.6601479890
 H          9.3510582432        1.6625480982        0.4229109378
 H          9.4445799737        0.2555303351        1.4768145676
 H          8.8576232745       -1.8641147688        1.4581616388
 H          9.8499422368       -4.5529195954        3.5334429814
 H          9.6838889910       -2.8133846604        3.3359481667
 H          9.7629545929       -3.8730277884        1.9142961253
 H          6.3426742116       -4.0218594761        4.5330152119
 H          7.9339582749       -4.5824110279        5.0392416012
 H          7.6287403154       -2.8554762930        4.8298870272
 H          6.4537030475       -5.5353645050        2.4797767492
 H          7.8157278714       -5.4052188613        1.3696721225
 H          8.0457217325       -6.1023451272        2.9759299698
 H          5.1770962486       -3.6724622560        2.6244064435
 H          3.9634226124       -2.0143503406        1.3553867106
