128
 energy: -198.630087057184 gnorm: 0.000053106418 xtb: 6.7.1 (edcfbbe)
C           -8.58259740485773        5.03211973118491        1.38616939741382
C           -7.80001361421155        4.31080801077077        2.49262168498480
C           -8.77351517086801        3.75275988308911        3.54038144405441
C           -6.89301363150748        5.33458271634197        3.18009848330960
C           -7.01629310635357        3.16430806239926        1.87558905330066
C           -5.63551926467472        3.05343154044305        1.95323993015735
C           -4.97504869220763        2.00309949406115        1.34974922119210
C           -5.66306187748701        1.02937844756836        0.62874721145895
C           -7.05674778298830        1.08057910175464        0.59524022596797
C           -7.69156404980764        2.15019144842123        1.20851290940744
C           -7.89686190324511       -0.00661581727724       -0.04434039950401
C           -8.75155581728265        0.61844641136316       -1.16188814258791
C           -8.79553085427443       -0.62648652581237        1.04119389766700
C           -7.04008883721026       -1.09894324416224       -0.65256178581520
C           -7.65908526959338       -2.16677487252297       -1.28487722795786
C           -6.96676696530607       -3.18675694898521       -1.92494998506356
C           -7.73462037289424       -4.33041351509804       -2.56665645937211
C           -8.57289696961137       -5.03552568759580       -1.49100132867429
C           -8.65484784804105       -3.77001985477914       -3.66027359884232
C           -6.80892349105285       -5.36890084015278       -3.20545162689759
C           -5.58366790078607       -3.08311490420584       -1.95543954886254
C           -4.93879367394072       -2.03378340858942       -1.33359904581636
C           -5.64569744470412       -1.05422660713661       -0.63929782123364
N           -4.96837570355120       -0.01260384248454        0.00462279283817
C           -3.57490166807292       -0.00770852731437        0.01683202559250
C           -2.84154950480929        1.02581414528522       -0.58217005595244
F           -3.49725843963243        2.01338093071935       -1.20386617793693
C           -1.45660071804518        1.03471230771581       -0.56071936646390
F           -0.79294856034588        2.02534390134356       -1.16731066381584
C           -0.73648504583837       -0.00169248586641        0.03251003825098
C            0.73635070661000       -0.00057903038751        0.03435444576577
C            1.45829710326675       -1.03721429708929       -0.55621100579963
F            0.79657533883498       -2.02878426234752       -1.16337500042259
C            2.84329180271661       -1.02757250166996       -0.57470811077958
F            3.50071514854087       -2.01517984731662       -1.19455756672046
C            3.57497004539781        0.00677022710013        0.02494939691153
N            4.96841516829444        0.01270570206501        0.01522186562326
C            5.66316376254433       -1.02894082968642        0.63989999899366
C            4.97502233262920       -2.00455815484761        1.35821672844506
C            5.63566024481214       -3.05493057908426        1.96146714452504
C            7.01677467228320       -3.16360568987569        1.88688159385684
C            7.80088640687787       -4.30964707534981        2.50425471846421
C            6.89342773826179       -5.33926881377201        3.18232313717321
C            8.76585708411639       -3.75160904078698        3.55986928896301
C            8.59293428532268       -5.02430637200617        1.40020863150306
C            7.69205548222089       -2.14718851611833        1.22334328025109
C            7.05701672204197       -1.07797608745093        0.60962462572116
C            7.89708318070540        0.01124573323659       -0.02656451832159
C            8.79166650603062        0.63143898012603        1.06211971928111
C            8.75596953958658       -0.61112588922586       -1.14243767111778
C            7.04014294586431        1.10231751916046       -0.63674709779540
C            7.65903180182514        2.17079712995218       -1.26807863092057
C            6.96677613779336        3.18857766098901       -1.91169851140299
C            7.73450210217590        4.33296938519043       -2.55223773998996
C            8.56269081591213        5.04460450370620       -1.47307647056972
C            8.66430470273863        3.77285076971926       -3.63788852885025
C            6.80917714125921        5.36565382488014       -3.20089069978147
C            5.58396479687795        3.08229079150760       -1.94626756085914
C            4.93919232907997        2.03258525640295       -1.32496626621626
C            5.64581671822224        1.05503641761875       -0.62754545614078
C            2.84195221800343        1.03573752334774        0.63216761246731
F            3.49831597809432        2.02655112543373        1.24803683285401
C            1.45672472034912        1.03843014668365        0.62241309710668
F            0.79378578676938        2.02701987537510        1.23302178311775
C           -1.45853578516915       -1.03988818989590        0.61991530483962
F           -0.79728595875337       -2.02808378292767        1.23297258226389
C           -2.84380897583563       -1.03651448460711        0.62653845989294
F           -3.50226874781825       -2.02620274127394        1.24197170755651
H           -9.13435031372914        5.87185743251640        1.80337363212141
H           -9.29215294549801        4.36658923721871        0.90235812034630
H           -7.89903219932758        5.40939124171768        0.62864443962656
H           -9.32004616165612        4.56544408496588        4.01413462171245
H           -9.49523629235805        3.07547085378725        3.09217216243713
H           -8.22772629787910        3.20922056556916        4.30873901772517
H           -6.34170239704808        4.88052166597381        4.00015625293229
H           -7.49945667661432        6.14023066692930        3.58906266689097
H           -6.18936865056148        5.76860520504492        2.47378106608790
H           -5.04595613310939        3.77890703783466        2.48797787281300
H           -3.90257589001719        1.94498079447505        1.45883791500739
H           -8.76816083640775        2.19164267129389        1.16505630551653
H           -9.40010392924694        1.39533274665389       -0.76703259540048
H           -9.37450704262444       -0.13055008491585       -1.64245863445408
H           -8.10462859863781        1.06207620617882       -1.91608060194526
H           -8.17913814935142       -1.07391356541966        1.81836386997546
H           -9.43403519610188       -1.39945278173160        0.62304088721983
H           -9.43105060310171        0.12623014846638        1.49890998134153
H           -8.73677285577556       -2.20170598961320       -1.27958624832649
H           -9.11080247535612       -5.87539248514392       -1.92564997065688
H           -9.29955803350750       -4.36092114567260       -1.04685015684616
H           -7.92794687311943       -5.41028980444116       -0.69914891929287
H           -8.06936628899207       -3.24178230233395       -4.40986563644063
H           -9.38495156978681       -3.07816871687794       -3.24935673882353
H           -9.19220987444692       -4.57991137275745       -4.14905588786587
H           -6.13955333012722       -5.80152389832890       -2.46571868777114
H           -7.40492390146560       -6.17338809533051       -3.63168061212051
H           -6.21949328569420       -4.92832758437962       -4.00609346638600
H           -4.97980558160190       -3.81350169273272       -2.46701729022162
H           -3.86311948777667       -1.98193343358382       -1.40752325714132
H            3.90226418686596       -1.94806987952098        1.46527010892037
H            5.04594196038708       -3.78218455138860        2.49361470907176
H            6.19478019957845       -5.77203354557833        2.47028325728073
H            7.50016866232027       -6.14496702674585        3.59073928089783
H            6.33647473499936       -4.89076507358363        4.00161487416699
H            9.48596906088523       -3.06799539613551        3.11870216781698
H            9.31443651963818       -4.56362887936259        4.03239356444302
H            8.21309053263080       -3.21493681867355        4.32806801724244
H            9.14397145754677       -5.86432517625268        1.81779161664360
H            7.91560060939848       -5.40025269490837        0.63645422196671
H            9.30421765576519       -4.35514087190312        0.92403828151078
H            8.76885736480050       -2.18645384918755        1.18312875842531
H            8.17242956727084        1.07204293633814        1.84092512585998
H            9.43118812953959       -0.11973779240786        1.51680116963455
H            9.42603081878479        1.40980304552310        0.64767434297004
H            9.40058308869122       -1.39135539945771       -0.74775801010299
H            9.38320090060668        0.13840227981949       -1.61656629230129
H            8.11177896618505       -1.04990488093678       -1.90179640393129
H            8.73662258288566        2.20791881040261       -1.25932122976313
H            9.10222262872822        5.88379647150240       -1.90701653804830
H            9.28713182220403        4.37334060099464       -1.02028985783473
H            7.91067387208017        5.42129680728267       -0.68795239599909
H            8.08608224736077        3.23898846340029       -4.38912775741877
H            9.20077831367513        4.58351485981544       -4.12636895375791
H            9.39529162052369        3.08618212575337       -3.21994451033687
H            6.22621587675837        4.91959104087209       -4.00324059719189
H            6.13376897258475        5.79913388497088       -2.46718663698136
H            7.40504274251573        6.17040982537888       -3.62679953913035
H            4.98024363164321        3.81076923810961       -2.46072561015393
H            3.86383626522858        1.97865084506260       -1.40203853945740
