128
 energy: -198.629798440125 gnorm: 0.000068143143 xtb: 6.7.1 (edcfbbe)
C           -8.61225744174861       -2.19159457723951        4.75868291492834
C           -7.76211094079198       -3.14091643612843        3.90276908167354
C           -8.67180827550257       -4.13623308726892        3.16852185016962
C           -6.84417768296139       -3.93279432181321        4.83754418190415
C           -6.98592438058295       -2.32762903420620        2.88010217613531
C           -5.60134637905630       -2.33170431927426        2.79288625313163
C           -4.94970225138488       -1.56808998034404        1.84617976233363
C           -5.65254633657109       -0.75688111495893        0.95806071708129
C           -7.04701928988067       -0.76826590825787        0.99644858620361
C           -7.67228922184194       -1.54585944445665        1.95936777249311
C           -7.89585835991748        0.00599608373444        0.00745468554769
C           -8.77129599578029        1.00506216792184        0.78563458424747
C           -8.77415378117447       -0.99180816619901       -0.76912404967429
C           -7.04771344095255        0.77902389121154       -0.98309856811665
C           -7.67361754384919        1.55759465389370       -1.94481533703158
C           -6.98780450552825        2.33835093653637       -2.86681979506585
C           -7.76468345818189        3.15288342158523       -3.88796865477703
C           -8.61807060832651        2.20495213724645       -4.74219652012938
C           -8.67130011954302        4.14968295653095       -3.15192447091817
C           -6.84730862879623        3.94325515448354       -4.82456514518018
C           -5.60305955639591        2.34031714264021       -2.78221989068961
C           -4.95079085941953        1.57568472778751       -1.83676639604719
C           -5.65318979371004        0.76552201074319       -0.94734117611056
N           -4.96951232644435        0.00379178485006        0.00470653758001
C           -3.57374731344121        0.00272977185190        0.00338213688658
C           -2.84241025090222        0.54709076266018        1.06637059556630
F           -3.50129678502014        1.09919599601543        2.09142286809460
C           -1.45687290738974        0.54327059921399        1.06529010493079
F           -0.79732405649192        1.11905812782761        2.07604805213047
C           -0.73578717330131        0.00055645186176        0.00068762062960
C            0.73578875914681       -0.00057385532155       -0.00070881560870
C            1.45770503738580        0.54072969178640       -1.06546680563378
F            0.79903910253306        1.11723716752106       -2.07639012943573
C            2.84324605638237        0.54243090080888       -1.06654601350255
F            3.50297674072026        1.09323563789045       -2.09175527342803
C            3.57374961915218       -0.00274013270245       -0.00339881593419
N            4.96951340918799       -0.00380472038209       -0.00472475670270
C            5.65138144481493       -0.76576375851019       -0.95788654258668
C            4.94729726977103       -1.57616865220400       -1.84575724983338
C            5.59776796790250       -2.34099731049896       -2.79229012905322
C            6.98234558374247       -2.33897269148485       -2.87958603408218
C            7.75727947921570       -3.15361285802082       -3.90212602619449
C            6.83814243644453       -3.94466505199828       -4.83641702258722
C            8.66589188574988       -4.14982652069325       -3.16775215881351
C            8.60842342181646       -2.20564399800426       -4.75854816628837
C            7.66990854071254       -1.55797399924841       -1.95909123176748
C            7.04583419435475       -0.77923543526967       -0.99632174760616
C            7.89585988543146       -0.00602086834326       -0.00752796846438
C            8.77274108127932       -1.00495630829694        0.76919338629777
C            8.77271171376818        0.99161525454286       -0.78595128805486
C            7.04890160592582        0.76845694969068        0.98290829854011
C            7.67599875921006        1.54622974130921        1.94449352593160
C            6.99138529485432        2.32825541038276        2.86631383556832
C            7.76951054050961        3.14167803627203        3.88739848953837
C            8.67831003889689        4.13647175813478        3.15133336798097
C            6.85336765604823        3.93416527062336        4.82341241254216
C            8.62076617120644        2.19236380983380        4.74221843879837
C            5.60664810293056        2.33238861744113        2.78166350107216
C            4.95320669406395        1.56856666680173        1.83636440442505
C            5.65435880772781        0.75710509192592        0.94713960148910
C            2.84443145743527       -0.54680014992638        1.06113048523838
F            3.50526255557777       -1.09861267484588        2.08508840531589
C            1.45889480446860       -0.54298547718495        1.06267707222020
F            0.80126658489842       -1.11848408353374        2.07484997663686
C           -1.45972341298865       -0.54104627610031       -1.06254545326906
F           -0.80297800745071       -1.11784304238605       -2.07455254105164
C           -2.84526421667284       -0.54274157175170       -1.06099572457958
F           -3.50694117263660       -1.09383570680375       -2.08479391755256
H           -9.15740550589960       -2.75423895791986        5.51360154544862
H           -9.33343208025265       -1.64879422973992        4.15395143206180
H           -7.97478619817774       -1.46690752924738        5.26057497562253
H           -9.21452347884847       -4.74778334957711        3.88621072513825
H           -9.39725700681936       -3.62460480657704        2.54206213129073
H           -8.07761255080982       -4.79179295689982        2.53535443707517
H           -6.24410609718026       -4.64948811721433        4.28176954720242
H           -7.44665533468667       -4.48537339516717        5.55571341461099
H           -6.18508876469182       -3.26884267757851        5.39178017379588
H           -5.00167550365913       -2.93373893190859        3.45459010374321
H           -3.87244453836407       -1.62232773290247        1.79879662989156
H           -8.75016244538979       -1.54416076085108        1.98902801534166
H           -9.40207613887844        0.49042284381513        1.50494319271869
H           -9.41344929016370        1.56807741824570        0.11435595304332
H           -8.13852973749273        1.70702432798847        1.32506117005588
H           -8.14338455959056       -1.69467423050416       -1.30971164300761
H           -9.40550797071290       -0.47625669793101       -1.48727562942485
H           -9.41588056510651       -1.55390662763095       -0.09666953900065
H           -8.75154605821982        1.55753036934153       -1.97244430633720
H           -9.16374130977132        2.76848212152335       -5.49607621473752
H           -9.33898102632181        1.66337724428833       -4.13605353534716
H           -7.98278424283862        1.47918661141346       -5.24529878013308
H           -8.07477626482255        4.80430996795705       -2.51998210106434
H           -9.39629633013702        3.63923502147124       -2.52397891646560
H           -9.21448318450530        4.76207885138203       -3.86853742806561
H           -6.19036699305704        3.27822525071556       -5.38005691170138
H           -7.45030065042503        4.49677225118756       -5.54157925815371
H           -6.24500597970146        4.65900939575942       -4.26999482118450
H           -5.00372461774940        2.94145854329341       -3.44503920476700
H           -3.87336418679135        1.62828102291686       -1.79141659638648
H            3.86996264235010       -1.62880069443874       -1.79830806699728
H            4.99717777198884       -2.94232952260423       -3.45379873109458
H            6.17983155614609       -3.28007970265589       -5.39081713034293
H            7.43976782042278       -4.49833173362179       -5.55446307064456
H            6.23722525255437       -4.66033627595784       -4.28023734442008
H            9.39219874448816       -3.63890950680439       -2.54170791323737
H            9.20759877945479       -4.76236232970403       -3.88536233583210
H            8.07102721672035       -4.80436578188992       -2.53415736313207
H            9.15277139071464       -2.76923023087474       -5.51334153061199
H            7.97173850961891       -1.48038419703140       -5.26061136143633
H            9.33034028170906       -1.66347500596136       -4.15413454146294
H            8.74778105763995       -1.55784630654111       -1.98882629297950
H            8.14097710450667       -1.70675283097057        1.31000863740745
H            9.41355720751156       -1.56817046757209        0.09680457120606
H            9.40494412515764       -0.49018575128692        1.48715783545607
H            8.14093997652474        1.69434830332583       -1.32554014615499
H            9.40275471534720        0.47590806761799       -1.50514167579536
H            9.41566438203393        1.55387829928887       -0.11480687534631
H            8.75392475601047        1.54446466109872        1.97216619770645
H            9.22231201533466        4.74815400784047        3.86793470606349
H            8.08329075057516        4.79194584476218        2.51885112461808
H            9.40264976572779        3.62442411562669        2.52393550623835
H            6.19507096075383        3.27060971165621        5.37906137390975
H            7.45720602138013        4.48690185413082        5.54031651043916
H            6.25251621657751        4.65076451410831        4.26835764491578
H            7.98388315936927        1.46810358551009        5.24547227409526
H            9.34069036355440        1.64906254338428        4.13644610189847
H            9.16741731270948        2.75508569033816        5.49599140951005
H            5.00823879379485        2.93462250189312        3.44432734982421
H            3.87586473152570        1.62283914711233        1.79097470781434
