128
 energy: -198.565816029064 gnorm: 0.000075523158 xtb: 6.7.1 (edcfbbe)
C           -8.55691927723262        4.57601531733233        2.49559790445040
C           -7.75389082084287        3.63454724861868        3.40539388834196
C           -8.70802079693062        2.86203972549631        4.32804078337660
C           -6.82948848697602        4.48749822022559        4.27776026247568
C           -6.98947873725225        2.64951895082940        2.53975718900976
C           -5.60265625522200        2.53042148217688        2.56079499516784
C           -4.95658895628013        1.64117720415837        1.73346543536046
C           -5.66677245182797        0.83571087552794        0.83514871445420
C           -7.06833840557986        0.89667252965524        0.83817764898765
C           -7.68598634440358        1.80397822376750        1.68151203417463
C           -7.91317724242555       -0.01495491210303       -0.02543836015212
C           -8.79294053368686        0.84750237734039       -0.95046612611462
C           -8.79102743574897       -0.88092093482955        0.89812771611718
C           -7.06327011995470       -0.92319919719691       -0.88764487060316
C           -7.67588710691559       -1.83296014355307       -1.73200316977333
C           -6.97458260522718       -2.67571033881004       -2.58908590364637
C           -7.73361502960473       -3.66377858748342       -3.45599096934725
C           -8.53439199408066       -4.60844837445251       -2.54753030141899
C           -8.68928424020188       -2.89508196309899       -4.38022635891455
C           -6.80436485060271       -4.51302920292898       -4.32681564935883
C           -5.58821350805094       -2.55107772480717       -2.60781631901517
C           -4.94707868686982       -1.65926465942386       -1.77941536575527
C           -5.66196567357338       -0.85664302514141       -0.88228402615110
N           -4.99276734593503       -0.00912564883587       -0.02300881467987
C           -3.58065065765889       -0.00630698205326       -0.02183407366951
C           -2.84516206017910        1.10750844184809       -0.47548453987190
F           -3.53266253170147        2.16201448745959       -0.96263591059091
C           -1.47599196871932        1.11584703063439       -0.46700002736907
F           -0.83038452670704        2.17077401712764       -0.99854839470177
C           -0.71441303922464       -0.00058584601237       -0.01944985141740
C            0.71469864318050        0.00226673477936       -0.01826108546372
C            1.47702849730728       -1.11404505254364       -0.46484586798905
F            0.83232412551745       -2.16885138651025       -0.99773602272599
C            2.84620022958828       -1.10570320300155       -0.47104972476345
F            3.53452589503850       -2.16007067853698       -0.95734256171362
C            3.58093643820653        0.00798791485938       -0.01587687618289
N            4.99304255185735        0.01080647994675       -0.01470211787876
C            5.66560869503488       -0.83427528225278        0.84434288341529
C            4.95392315481018       -1.63999432483577        1.74124547043765
C            5.59861214494609       -2.52948089008993        2.56938753244043
C            6.98546692045999       -2.64858515226214        2.55061558502040
C            7.74844830735821       -3.63385440090047        3.41724315948044
C            6.82260032560339       -4.48696858680205        4.28790431269729
C            8.70110949022842       -2.86162265908810        4.34163528908484
C            8.55290984412812       -4.57515508894733        2.50854345414186
C            7.68340095534629       -1.80281140110114        1.69376769844861
C            7.06716330888916       -0.89525302016262        0.84967491760800
C            7.91342500482721        0.01663520464394       -0.01227283650987
C            8.78975172093459        0.88231702671489        0.91300238282911
C            8.79473734858134       -0.84553911020534       -0.93608655934019
C            7.06496519110444        0.92514137307171       -0.87562989646506
C            7.67897862361273        1.83515553081295       -1.71869893701569
C            6.97910051338867        2.67813973948782       -2.57670926011259
C            7.73958357610243        3.66645036862884       -3.44206875414488
C            8.53876703427661        4.61095194601010       -2.53203408986130
C            8.69685752464154        2.89803167196871       -4.36487170377843
C            6.81178740126501        4.51586456916852       -4.31427223668272
C            5.59276538898524        2.55350034641451       -2.59778828997625
C            4.95025528057777        1.66144427455146       -1.77071740572802
C            5.66365822195068        0.85856933749427       -0.87262954129298
C            2.84100389206298        1.11873550318741        0.43806931554371
F            3.52430495191021        2.17584080973361        0.92550315849265
C            1.47182198436390        1.12161144020869        0.42958761232577
F            0.82202621653056        2.17383387418748        0.96140097885736
C           -1.47227253914570       -1.12005158787981        0.42683641272124
F           -0.82334410148111       -2.17239462792971        0.95946160211701
C           -2.84147723266622       -1.11717891883359        0.43304305320398
F           -3.52557207047094       -2.17442274339796        0.91905344717511
H           -9.09211857513973        5.30824841993856        3.09608852268958
H           -9.28297558750041        4.03127320346649        1.89848082769795
H           -7.88830659362641        5.10508236865097        1.82010575100504
H           -9.24101098930511        3.55415704848258        4.97614168216868
H           -9.44189256048383        2.29653450108659        3.76046328355299
H           -8.14855085221407        2.16707398094176        4.95055013076606
H           -6.26138318587355        3.86880778473630        4.96834352417324
H           -7.42542278735290        5.18369877233926        4.86425167404476
H           -6.14109383578782        5.06666162245622        3.66713191245937
H           -5.00441482020052        3.13083727520293        3.22477800023991
H           -3.88219554275735        1.56569577112279        1.78536118532753
H           -8.76300919948529        1.85582891958688        1.67130572734851
H           -9.45064247493078        1.49035351280745       -0.37266532109200
H           -9.40709454828731        0.22381953304802       -1.59367902841184
H           -8.16359181263901        1.47446575013930       -1.57868339980309
H           -8.16022628708406       -1.50536858920117        1.52739305528247
H           -9.44519544484015       -1.52639104947029        0.31923588472714
H           -9.40873569934417       -0.25969722769894        1.54031608431169
H           -8.75270988197887       -1.88910998002367       -1.72358872281970
H           -9.06566414027174       -5.34280946451222       -3.14890895444552
H           -9.26360965408577       -4.06661127934114       -1.95162367649391
H           -7.86479783638284       -5.13484516242035       -1.87092509953704
H           -8.13155764228731       -2.19788590157234       -5.00180546714607
H           -9.42635103139267       -2.33251301995561       -3.81387234201063
H           -9.21842814428217       -3.58931859031874       -5.02921167639227
H           -6.11468094144928       -5.08944262579250       -3.71504110284293
H           -7.39653852998309       -5.21160059314504       -4.91429622017227
H           -6.23758528306437       -3.89207312295869       -5.01645410375602
H           -4.98647600666353       -3.14909809250679       -3.27080122761570
H           -3.87291027805345       -1.57949480422481       -1.82952345426633
H            3.87944385371479       -1.56451975068206        1.79136789986364
H            4.99926143991961       -3.13009030228541        3.23219826271853
H            6.13517786171088       -5.06595940247086        3.67602124088182
H            7.41756230256123       -5.18332677336596        4.87519323115298
H            6.25340468767261       -3.86841013670802        4.97770546442008
H            9.43599887410553       -2.29608138208594        3.77541525099855
H            9.23293333292866       -3.55392827176645        4.99049306513455
H            8.14066608192090       -2.16672587344776        4.96334325226598
H            9.08714395361316       -5.30750126009349        3.10975684409546
H            7.88536333570947       -5.10409508398210        1.83190034426360
H            9.27991924385637       -4.03032125999958        1.91267318210947
H            8.76043817381098       -1.85469624735481        1.68533568192155
H            8.15792220696864        1.50657489543719        1.54142303088923
H            9.40639849258222        0.26088059247921        1.55600616162333
H            9.44486875167001        1.52795500513054        0.33537036128022
H            9.45146435976634       -1.48855929624283       -0.35736369177759
H            9.40996749924475       -0.22164433367500       -1.57806593874050
H            8.16645031700569       -1.47231155917509       -1.56555509598890
H            8.75578462830678        1.89133922268694       -1.70847521751164
H            9.07107319698449        5.34542725296365       -3.13235959399898
H            9.26695284862495        4.06902271726922       -1.93495278457582
H            7.86798875159659        5.13722026053733       -1.85650473039166
H            8.14022852311145        2.20090500776445       -4.98750941159057
H            9.22699216647211        3.59245745272992       -5.01284560110971
H            9.43305569734235        2.33542703453477       -3.79742766068385
H            6.24621454107477        3.89504106409412       -5.00501775960931
H            6.12104155554478        5.09210427645548       -3.70353589770138
H            7.40494116776595        5.21459450365352       -4.90057236463817
H            4.99212551959419        3.15171490920085       -3.26159705954186
H            3.87617070682158        1.58168129709693       -1.82262726619263
