  94
       -148.21733308
 C          4.9590085627        1.1221069122       -2.6383059604
 C          4.6163095626        2.0526283748       -1.4585931239
 C          5.3333775502        3.4060171235       -1.6219024698
 C          3.1204501995        2.2806116653       -1.4509742102
 C          2.5223921312        2.9279590998       -2.5234734266
 C          1.1546757766        3.1258082794       -2.5921786318
 C          0.3446239650        2.6364375373       -1.5792481196
 C          0.9078956346        1.9759863456       -0.5110921594
 C          2.2993657363        1.8121389557       -0.4119431548
 N          2.8399210051        1.1773411987        0.6872757805
 C          1.9807983495        0.6045662103        1.6552298990
 C          1.9583653643       -0.7912343999        1.8175306355
 C          1.0783444264       -1.3665893971        2.6923610791
 C          0.1830245543       -0.5638256964        3.4283419323
 S         -1.3532403596       -1.2998266636        3.9034469657
 O         -2.1141493386       -0.4107531800        4.7545785097
 O         -1.1589288838       -2.6589249906        4.3610630522
 C         -2.0187705922       -1.2999834644        2.2523523420
 C         -1.4537260714       -2.2188384111        1.3561513480
 C         -1.4736084944       -1.9563026708       -0.0009148353
 N         -0.7822927807       -2.7996309900       -0.8798213987
 C         -0.8295661912       -4.1751290059       -0.9050769826
 C         -1.6502310434       -5.0418172612       -0.1956062196
 C         -1.5110710857       -6.3974392927       -0.4309439258
 C         -0.5885557422       -6.8831225059       -1.3553480328
 C          0.2174173256       -6.0237822811       -2.0803893331
 C          0.0993739752       -4.6593418165       -1.8593526515
 C          0.7503445816       -3.5043177995       -2.4147860011
 C          1.7560692193       -3.3278479483       -3.3544283485
 C          2.1833831967       -2.0420852009       -3.6361117247
 C          1.6289612604       -0.9423320979       -2.9856002423
 C          0.6249472247       -1.0934024873       -2.0467768700
 C          0.1766175309       -2.3779806289       -1.7755402823
 C         -2.0990684734       -0.8056692149       -0.4948372500
 C         -2.6745170057        0.0996293828        0.4105244807
 N         -3.2965257648        1.2542031398       -0.0847748319
 C         -4.2663206172        1.2908546490       -1.0607572038
 C         -4.8984411475        0.2411654783       -1.7141248429
 C         -5.8756507501        0.5544538183       -2.6403602127
 C         -6.2218512569        1.8762830742       -2.9112508102
 C         -5.6048183587        2.9258964696       -2.2541546301
 C         -4.6225745988        2.6369061259       -1.3187174864
 C         -3.8096287380        3.4439471623       -0.4486824019
 C         -3.6762215816        4.8110909174       -0.2565412833
 C         -2.7557440151        5.2617925041        0.6728605797
 C         -1.9735177271        4.3689073453        1.4020293999
 C         -2.0900628888        3.0020091392        1.2322124643
 C         -3.0168523089        2.5445654282        0.3049609981
 C         -2.6177873001       -0.1306205798        1.7721051846
 C          0.2486180552        0.8337445492        3.3089397378
 C          1.1447660628        1.4133906440        2.4506040431
 C          4.2019118436        1.0241343401        0.8358639930
 C          4.7078570174        0.5003181552        2.0368302405
 C          6.0575896056        0.2990743994        2.2071013266
 C          6.9378530755        0.6204049853        1.1840957434
 C          6.4492689980        1.1761814445        0.0152724187
 C          5.0944248256        1.4042027742       -0.1790052284
 H          4.4668563702        0.1605227656       -2.5061265083
 H          6.0308363359        0.9552671216       -2.6957036239
 H          4.6279380635        1.5543495268       -3.5785072426
 H          5.0321639555        3.8982081966       -2.5414375896
 H          5.0886045799        4.0580295785       -0.7858380168
 H          6.4104926538        3.2733064981       -1.6492915483
 H          3.1350469180        3.2861242317       -3.3361682191
 H          0.7245441613        3.6422978907       -3.4359107733
 H         -0.7263960623        2.7639417374       -1.6243753107
 H          0.2701657107        1.5748343072        0.2576302498
 H          2.6276157691       -1.3971730127        1.2237838666
 H          1.0417727653       -2.4332629981        2.8341057553
 H         -0.9634948106       -3.0913375533        1.7502805865
 H         -2.3730188625       -4.6691176504        0.5132752583
 H         -2.1323999775       -7.0935126366        0.1115944906
 H         -0.5087985502       -7.9483857599       -1.5102953224
 H          0.9226676031       -6.4028744986       -2.8041960147
 H          2.1979446677       -4.1783684165       -3.8505540602
 H          2.9636266833       -1.8861999770       -4.3663667514
 H          1.9837294651        0.0513045751       -3.2147073374
 H          0.2179556053       -0.2379324383       -1.5345301034
 H         -2.1298784010       -0.6090750469       -1.5531656849
 H         -4.6449257195       -0.7841646921       -1.4927488139
 H         -6.3852334148       -0.2426360427       -3.1603417900
 H         -6.9913720970        2.0806789602       -3.6401421728
 H         -5.8853225791        3.9481616326       -2.4571368836
 H         -4.2765950679        5.5058458365       -0.8238060080
 H         -2.6381801678        6.3222485310        0.8371571713
 H         -1.2620189581        4.7531103076        2.1176199256
 H         -1.4853215525        2.3136352292        1.7997645461
 H         -3.0425064727        0.5620803950        2.4789860687
 H         -0.4221755400        1.4242613152        3.9127903588
 H          1.2253030587        2.4879609506        2.3698688371
 H          4.0235490193        0.2641359194        2.8349720025
 H          6.4250887035       -0.1061071220        3.1371029264
 H          7.9971346504        0.4540897421        1.3017013856
 H          7.1496316277        1.4382736911       -0.7624719470
