94
 energy: -148.273722083071 gnorm: 0.000084911008 xtb: 6.7.1 (edcfbbe)
C            7.30813600884790        0.45866154753811        2.11067095472534
C            7.06709301455686        0.03083936494676        0.64866150219587
C            8.36705720851709        0.18216985447507       -0.16800254878924
C            6.65524694380277       -1.42299263797821        0.62130179886685
C            7.52126203098870       -2.39233294018044        1.10877334862500
C            7.21450270035613       -3.74029507158053        1.05798993963691
C            6.02029643295117       -4.14917655611476        0.47923260643384
C            5.13722546965904       -3.21201148919779       -0.00339889662582
C            5.42185397011612       -1.83780588868231        0.08655380754834
N            4.49761299546635       -0.92126700647177       -0.36985275726837
C            3.23634144689016       -1.38200591273606       -0.82153259510014
C            2.33001094728196       -1.97570500543827        0.08283759442557
C            1.09742633616231       -2.38700966272338       -0.34809130804961
C            0.73780223205678       -2.23486128969196       -1.69930778639559
S           -0.93261908507912       -2.46534797600588       -2.19163908992930
O           -1.47335936683062       -3.69386866846024       -1.62570656317146
O           -1.00828292669591       -2.34606002372296       -3.64112616596249
C           -1.83923549768880       -1.12155918474743       -1.43837216959386
C           -3.11182574672149       -1.36915978415905       -0.92268348609214
C           -3.75577651971807       -0.39068597881770       -0.18179871117658
N           -5.03983245706786       -0.62387770291354        0.32718358243208
C           -5.43442156848944       -1.74105731663464        1.03659271951283
C           -4.68901184332481       -2.83904961164306        1.44364071928103
C           -5.33393543127333       -3.82154344846396        2.17468875029577
C           -6.68303558289215       -3.71396831499770        2.50464113465397
C           -7.42562527198706       -2.61160775139732        2.12113530222436
C           -6.80078713559525       -1.61304167577541        1.38661624567793
C           -7.24459269425647       -0.35636372178198        0.84863986087158
C           -8.46528339350119        0.30510663061965        0.84424471722226
C           -8.55697502196479        1.52254187023155        0.19356699344583
C           -7.45631251371663        2.07285614810680       -0.45903185112006
C           -6.23027551562607        1.43155128934942       -0.46728290774568
C           -6.12462458433010        0.22159190363718        0.20359839952663
C           -3.12161791710834        0.83073427669755        0.07817256101489
C           -1.82621036426760        1.05096463514329       -0.41567696613076
N           -1.14714817151026        2.23119114226782       -0.07827697132802
C            0.06568624360011        2.27668422608356        0.57994643949949
C            0.86568313455229        1.23318895858513        1.02184053686711
C            2.02389676027032        1.55572457673594        1.70772848934074
C            2.37984946963355        2.88052049955879        1.94913044236202
C            1.58136284231472        3.92400876028186        1.51864176181933
C            0.40866800308086        3.62701286372905        0.83539071600285
C           -0.65609960530443        4.42627656750427        0.29571241043959
C           -0.88828365915510        5.79374170889888        0.22203965629450
C           -2.04425207965664        6.23764172592557       -0.39396856262515
C           -2.95972072430008        5.34031717851141       -0.94083283545439
C           -2.75061634123074        3.97414348543997       -0.87939294646789
C           -1.60094916150535        3.52154902594042       -0.24873675732798
C           -1.19180719234701        0.08353770877377       -1.17590571232380
C            1.64098693015271       -1.64879528668818       -2.60418306443270
C            2.87571774929306       -1.24214351868842       -2.17834088702710
C            4.77230052303732        0.43111821200243       -0.40007412449435
C            3.79928966231084        1.33086587612977       -0.86961124933129
C            4.05625858020267        2.67999125069876       -0.93893142395518
C            5.28517152844142        3.17096573600753       -0.52228769062451
C            6.23407247089400        2.29725342047274       -0.02195449827147
C            6.00698582667778        0.92981566673296        0.05433094743053
H            6.39037041480411        0.35379778475889        2.68580450022359
H            7.62853436352720        1.49484115595185        2.15924353680153
H            8.07460355547702       -0.15835452982938        2.56950345983376
H            9.15783029172714       -0.43333360164264        0.24935111228496
H            8.19710403034959       -0.12626192866826       -1.19769797364357
H            8.70336776125205        1.21420441932681       -0.16862467797789
H            8.46521438416530       -2.09472033362344        1.53699634822926
H            7.90848192318471       -4.46816762091535        1.44898825767315
H            5.78116600789587       -5.19875215921513        0.40167548290840
H            4.21819685492892       -3.53124235042249       -0.46780300063023
H            2.61483832035671       -2.08288394453024        1.11895656656904
H            0.38044160320184       -2.83436256359406        0.32332879432820
H           -3.58016429932790       -2.31535402030458       -1.14031657545016
H           -3.64181524261662       -2.92834816982572        1.19769289424320
H           -4.77655736601950       -4.68886108487270        2.49625307243997
H           -7.15119272924067       -4.50311897843643        3.07425706739006
H           -8.46783325285720       -2.52503232822737        2.38811815496587
H           -9.32414378490794       -0.12734413335489        1.33447548333244
H           -9.49770692029919        2.05269454252716        0.18056231854886
H           -7.56190832556843        3.01696956823921       -0.97233798022022
H           -5.38687737153616        1.85144699321227       -0.99198926430501
H           -3.59760458844751        1.57102120170678        0.70019905052970
H            0.59130292657260        0.20467216234032        0.84083680597394
H            2.65830948645726        0.76177974406977        2.07088551720733
H            3.29098848400920        3.09181011472656        2.48823957758879
H            1.85441186985854        4.94916674114179        1.71692367882685
H           -0.17780140531614        6.49350026872185        0.63521370405715
H           -2.24224652728630        7.29731768063366       -0.45975115862228
H           -3.84790826827344        5.71849161171111       -1.42482884047751
H           -3.45200246148659        3.28129531235392       -1.31780604841773
H           -0.20323479520229        0.25342631355047       -1.57258891659843
H            1.32842884417868       -1.55069379330376       -3.63206511440831
H            3.58774299490028       -0.82076990174705       -2.87238682717737
H            2.83562171712031        0.95791718851978       -1.17178552107644
H            3.29500595179294        3.34910070513596       -1.30850551486184
H            5.49614448057283        4.22790464386807       -0.57252025745728
H            7.17420025598695        2.69893526017704        0.32117509724143
