94
 energy: -148.370716714512 gnorm: 0.000057118489 xtb: 6.7.1 (edcfbbe)
C            7.71628764944437       -1.01685555601795        2.05003113599740
C            7.07935504894682        0.07538698828530        1.17010558724856
C            7.94604399390170        1.34852707053867        1.19028474136859
C            6.99824210405949       -0.44124525182814       -0.25437782172991
C            8.16581674395785       -0.79504399760290       -0.91821402535750
C            8.15626855712597       -1.30420280580241       -2.20360378719976
C            6.94617064484385       -1.48530656502777       -2.84882045607767
C            5.77116688117260       -1.14078510388238       -2.21349549577271
C            5.78069420982027       -0.60002667452100       -0.92423862478308
N            4.58127647503211       -0.25497591688876       -0.31231770515277
C            3.36741864068773       -0.44224255505480       -1.01876056359847
C            2.52211782763726       -1.49732827992183       -0.67814462019513
C            1.33928067730933       -1.68434640217102       -1.36930680010701
C            1.01180621478048       -0.81772658708505       -2.39623646374488
S           -0.54227753533729       -1.06144463994785       -3.25690254201626
O           -0.68957656096658       -2.46474443225313       -3.57424631653157
O           -0.62202335845643       -0.12630310069860       -4.35714677396582
C           -1.78667144050340       -0.62001570869814       -2.03790918756518
C           -2.47054006485325       -1.61964506581933       -1.38126775707214
C           -3.43010037124468       -1.27083111663641       -0.42828340739169
N           -4.16802139101622       -2.26307758928456        0.21597710169055
C           -4.40970221615664       -2.35130630951117        1.57734893759805
C           -3.93113767572056       -1.56446558236437        2.61391365352660
C           -4.30372827753812       -1.89335297509988        3.90395785405596
C           -5.12514713855955       -2.98731080651238        4.16525478653370
C           -5.57979715913928       -3.79361052217748        3.14012287898037
C           -5.21804875682376       -3.48051439676845        1.83608492377024
C           -5.47933675304446       -4.09816067496675        0.56439265741583
C           -6.21728942567156       -5.21076539828521        0.18133590780486
C           -6.28572773666638       -5.52881826747934       -1.16071779771687
C           -5.64300684376739       -4.74371563221599       -2.11510636225677
C           -4.90349116355699       -3.63128780018414       -1.75746138807177
C           -4.80938452938328       -3.32245056779049       -0.40824405284955
C           -3.66430020679357        0.07520814192218       -0.15484735280507
C           -2.95554229983615        1.07294292222687       -0.82209438704310
N           -3.22691594257369        2.41822657608739       -0.57276174721745
C           -3.33158544545871        3.01732568030435        0.67168901808751
C           -3.10287624119708        2.48538940700003        1.93159440655730
C           -3.24554471991098        3.32034161903118        3.02418198740460
C           -3.59529066878974        4.66000662964493        2.87272791034653
C           -3.79511226239761        5.20357329477778        1.61880228892375
C           -3.65842237026953        4.38182835522965        0.50726127068439
C           -3.76395242798191        4.61067175514444       -0.90820676130418
C           -4.07948919151814        5.72832156908679       -1.67019882046141
C           -4.12052375718231        5.60133310156602       -3.04465473980595
C           -3.86421857183306        4.37694348670630       -3.65765265549280
C           -3.54838048504513        3.25071798221616       -2.91990948238751
C           -3.48310937424720        3.37836132315494       -1.53999912559582
C           -1.99618401155944        0.71649955710036       -1.77145774628173
C            1.83658327004323        0.23485840498227       -2.74366024997405
C            3.02132829057845        0.42362651555864       -2.05391788289021
C            4.53807726842867        0.25223455801696        0.98101737627549
C            3.31239698898020        0.63625954328339        1.53323676914500
C            3.23639074743376        1.13684806275243        2.81649835354423
C            4.38734735741291        1.27061296571496        3.57208229968181
C            5.60363692433586        0.91660178460908        3.01802657443746
C            5.70954834409425        0.41369647199027        1.72764470482540
H            7.79850856795390       -0.68438898180575        3.08107715610543
H            8.71072823776132       -1.27047502869551        1.69368108257338
H            7.10354366328276       -1.91654967312117        2.02656272132759
H            8.04634628893586        1.73385604286722        2.20100249931177
H            8.94115641648716        1.14647284903797        0.80428985142659
H            7.48791075173497        2.11933617531917        0.57278371739304
H            9.11576041619145       -0.67521338905634       -0.42003955527144
H            9.08344156362310       -1.56620369764205       -2.69070741161514
H            6.91167454067810       -1.89846827170790       -3.84626055293227
H            4.83223896900490       -1.29913123664210       -2.72130525204300
H            2.80057185626308       -2.16232544210821        0.12526068208365
H            0.67721316201198       -2.50291482524616       -1.13644205088452
H           -2.25827628571763       -2.64890262325254       -1.62024640340604
H           -3.27451087711619       -0.73005424506907        2.42591245477879
H           -3.94669181410176       -1.29093913752655        4.72619024125458
H           -5.39792460105752       -3.21167615312721        5.18576828906656
H           -6.19899687802435       -4.65406653591622        3.34379938080699
H           -6.72871300130992       -5.80883908356462        0.92024958163071
H           -6.85111412251790       -6.39161279501901       -1.48043963119697
H           -5.72516146361135       -5.00648870647580       -3.15958383676385
H           -4.42378094058743       -3.02533073070839       -2.51121260040953
H           -4.43652065476370        0.35009696165562        0.54747095284250
H           -2.80659095301048        1.45630515252195        2.05897396674203
H           -3.07732524651956        2.92597022682670        4.01551237887145
H           -3.69966050966470        5.28148727225265        3.74975328701350
H           -4.04663349812918        6.24653632159887        1.49966446709094
H           -4.29397169442166        6.67273459301812       -1.19334904835752
H           -4.36248960402976        6.45772243438205       -3.65648439096594
H           -3.91673998761955        4.30245155117108       -4.73395593106657
H           -3.36731054225515        2.30574938220738       -3.40970558148487
H           -1.42842715247772        1.46214137440992       -2.30303579358072
H            1.54124565797958        0.88404798747579       -3.55300734215622
H            3.68423014122482        1.23539635759972       -2.31246348928092
H            2.41069982673078        0.54749022846831        0.94711356848943
H            2.27725713992724        1.42462093717764        3.22122006600510
H            4.34204733407668        1.65676355520351        4.57927165759262
H            6.49546980821380        1.03995966909683        3.61327164353318
