  79
       -131.45286926
 C          3.8880689837       -5.1818893772        1.6447040735
 C          4.1793463048       -3.8360172878        1.8037554243
 C          3.1672192870       -2.9069610800        1.6466165219
 C          1.8887529794       -3.3603866069        1.3182515330
 C          0.7607630216       -2.4364340462        1.1099902943
 C         -0.4837725695       -2.7590085927        1.6435398640
 C         -1.5596916454       -1.9052494190        1.5209208464
 C         -1.4176814310       -0.7029403723        0.8302616633
 N         -2.5055215614        0.1656870925        0.6935743145
 C         -2.4975996581        1.5200278298        0.9663938538
 C         -1.4760083581        2.3233330893        1.4509702938
 C         -1.7498156404        3.6609219586        1.6631616531
 C         -3.0121417876        4.1950561841        1.4121988350
 C         -4.0420685921        3.3981354768        0.9546296697
 C         -3.7863253209        2.0513856021        0.7336030348
 C         -4.5972219525        0.9563105640        0.2926495149
 C         -5.9160640398        0.8013714705       -0.1104995688
 O         -6.8813761066        1.7539473104       -0.1732909599
 C         -8.0029075145        1.1260778199       -0.6279148277
 C         -9.2384389883        1.7065284835       -0.8470919094
 C        -10.2497984028        0.8860462787       -1.3151797604
 C        -10.0333200632       -0.4682089086       -1.5558309894
 C         -8.7987750095       -1.0469460893       -1.3356706835
 C         -7.7682659911       -0.2433251131       -0.8655447826
 C         -6.3877793029       -0.4575346918       -0.5242067941
 C         -5.5421926991       -1.5679678055       -0.5522482193
 C         -4.2301291435       -1.4387927182       -0.1522933659
 C         -3.7739095699       -0.1932113204        0.2810313447
 C         -0.1914202520       -0.3835230678        0.2578658469
 C          0.8924281879       -1.2406855575        0.3912132411
 N          2.1020170696       -0.9185292053       -0.2445730288
 C          2.7856382296       -1.7380055224       -1.1207566814
 C          2.4136046648       -2.9612802075       -1.6589397493
 C          3.2964040441       -3.5736515700       -2.5268908486
 C          4.5130997531       -2.9843124507       -2.8679744303
 C          4.8757558144       -1.7541070899       -2.3588391386
 C          4.0049891725       -1.1223760795       -1.4803215034
 C          4.0464681923        0.1253446137       -0.7779983476
 C          4.9481033382        1.1746984509       -0.6680360371
 O          6.1492755476        1.3037749271       -1.2879649849
 C          6.6691010004        2.4898935268       -0.8622905080
 C          7.8846504992        3.0347639002       -1.2323612356
 C          8.2267950340        4.2558872979       -0.6781584070
 C          7.3825212921        4.9096745836        0.2153765470
 C          6.1685994271        4.3641485389        0.5843507085
 C          5.8037378160        3.1391072406        0.0413048095
 C          4.6665171714        2.2684976052        0.1710808347
 C          3.4876630756        2.3188798451        0.9174405393
 C          2.5782681948        1.2884920591        0.8245519264
 C          2.8526532204        0.2164591280       -0.0245955373
 N          1.6064183435       -4.6554458019        1.2031450830
 C          2.5774255962       -5.5336594635        1.3604425072
 H          4.6520594672       -5.9359617753        1.7493190299
 H          5.1810712921       -3.5134189810        2.0482016216
 H          3.3613085138       -1.8555208704        1.7910898399
 H         -0.5829572756       -3.6912371570        2.1767841611
 H         -2.5089673968       -2.1531000465        1.9693089710
 H         -0.5006574681        1.9183231528        1.6691744296
 H         -0.9678996238        4.3059304438        2.0359251102
 H         -3.1841430663        5.2460636070        1.5890616704
 H         -5.0273441282        3.7985204454        0.7733420089
 H         -9.3989432867        2.7560321823       -0.6590472987
 H        -11.2272575998        1.3058731855       -1.4984692001
 H        -10.8485330454       -1.0743230257       -1.9219498043
 H         -8.6332003144       -2.0969351782       -1.5227585416
 H         -5.9184816604       -2.5205456616       -0.8909069322
 H         -3.5612906677       -2.2842950148       -0.1873192237
 H         -0.0867148893        0.5193492407       -0.3244656728
 H          1.4712528756       -3.4222274700       -1.4069963322
 H          3.0362664929       -4.5309550494       -2.9534102588
 H          5.1747045142       -3.4990190339       -3.5485681020
 H          5.8081339697       -1.2836345104       -2.6299645473
 H          8.5331665180        2.5234236363       -1.9256189813
 H          9.1689562036        4.7106076202       -0.9444774728
 H          7.6858354548        5.8615302153        0.6252617928
 H          5.5156703979        4.8730893470        1.2769561009
 H          3.2979584419        3.1598389989        1.5658553889
 H          1.6727952339        1.2997911324        1.4101247019
 H          2.2861932583       -6.5702827238        1.2488245155
