  51
        -72.37281210
 C          5.0706064499        0.2168984995       -0.0558584426
 C          3.7270355146        0.7633752143        0.2977146254
 C          3.6326886845        2.0293294291        0.9404593548
 C          2.4166265222        2.5429514016        1.2753351505
 C          1.2321727010        1.8274723740        0.9939186530
 C          1.3087150351        0.5480439024        0.3402856531
 C          2.5581518240        0.0679811380        0.0094356425
 C          0.0459551227       -0.1816758685       -0.0280930492
 C         -0.2793510447        0.0446470193       -1.5046330239
 C         -1.0358453676       -0.8825567653       -2.2281229690
 C         -1.3597697355       -0.6501970688       -3.5488591911
 C         -0.9559490503        0.5161646569       -4.1811875903
 C         -0.2170566757        1.4497573968       -3.4657818447
 C          0.1163696386        1.2190622512       -2.1477674815
 C          0.2501319286       -1.6353855850        0.3513871972
 C          0.7880071713       -2.5637536562       -0.5363782121
 C          1.0021295089       -3.8721235553       -0.1396415529
 C          0.6944912765       -4.2731121934        1.1484673444
 C          0.1773013104       -3.3489138556        2.0445754956
 C         -0.0401785384       -2.0433127932        1.6488546696
 C         -1.1941034141        0.3978153202        0.5897763568
 C         -2.4175403109       -0.2568590297        0.5603300773
 C         -3.5847744547        0.3291947139        1.0050340543
 C         -4.8883505780       -0.3969493738        0.9868588671
 C         -3.5460449398        1.6736202460        1.5031926379
 C         -2.3610815428        2.3432943475        1.5727117016
 C         -1.1666312443        1.7334087598        1.1515923053
 N          0.0251827612        2.3530232784        1.3201700567
 H          5.6992316463        0.1408019223        0.8326233691
 H          4.9841754082       -0.7684512468       -0.5065563126
 H          5.5801489522        0.8784188833       -0.7588731126
 H          4.5377987468        2.5754756208        1.1576234669
 H          2.3352410802        3.5060676865        1.7615126528
 H          2.6366169126       -0.8863198088       -0.4880137605
 H         -1.3682004319       -1.7942363200       -1.7571233772
 H         -1.9376516098       -1.3848756665       -4.0918382630
 H         -1.2135329170        0.6968964172       -5.2137154437
 H          0.1056883385        2.3629286208       -3.9452465293
 H          0.7034387302        1.9526663589       -1.6159366877
 H          1.0325954988       -2.2662098314       -1.5453020685
 H          1.4134563682       -4.5824254893       -0.8428561358
 H          0.8590389272       -5.2953866767        1.4550113093
 H         -0.0568246269       -3.6492679008        3.0555549180
 H         -0.4431522611       -1.3282095142        2.3514789751
 H         -2.4546968036       -1.2676002395        0.1831037475
 H         -5.6158461119        0.1442473262        0.3802048707
 H         -4.7724435841       -1.3988029136        0.5813531305
 H         -5.2987328010       -0.4728117873        1.9951447729
 H         -4.4635712952        2.1371064904        1.8290009874
 H         -2.3172418734        3.3510095846        1.9651810479
 H          0.0178398622        3.2709252049        1.7500215972
