51
 energy: -72.400280969977 gnorm: 0.000087023946 xtb: 6.7.1 (edcfbbe)
C            4.97731563486108        0.13086012549943        0.52285772176740
C            3.60944274844083        0.70219746914867        0.69743488249028
C            3.47142858929973        2.02600992086831        1.23076748447644
C            2.23203265024260        2.55364544350651        1.44103730385181
C            1.07552545201167        1.81720015173594        1.12862190381075
C            1.19384631472826        0.50350314740371        0.52905618777478
C            2.47414128841652       -0.00714802943463        0.36105249109327
C           -0.03102648543681       -0.20779057532603        0.02583494544109
C            0.11990432770901        0.04212457357608       -1.47395202773351
C           -0.45583686881339        1.16879780837428       -2.06714336442959
C           -0.28122155833376        1.43165576275597       -3.40924317460011
C            0.47471055967006        0.57751096026631       -4.20372596725880
C            1.05737822446454       -0.54010682297868       -3.62401490036730
C            0.89179360089868       -0.80286120320940       -2.27967735936211
C           -0.04447262280248       -1.67173595155401        0.42670535456290
C           -0.55550622427027       -2.66728919129461       -0.40371277041008
C           -0.59355702251759       -3.98489181154226        0.01844542923674
C           -0.13559057871867       -4.33156288910149        1.27762293287323
C            0.35608715651019       -3.34316026147491        2.11912225455514
C            0.39879351448077       -2.02860145519461        1.69674637637111
C           -1.32472499921161        0.38159552121885        0.52253517437636
C           -2.54334503216933       -0.22027566719264        0.28540596847822
C           -3.74733916370780        0.33342705837191        0.70579526995333
C           -5.05321574111920       -0.34338436614045        0.44871916750811
C           -3.72547074617782        1.57862035900688        1.39411486994539
C           -2.54422388582904        2.21225819660799        1.63639031670305
C           -1.32234359869103        1.64225662548330        1.21501185757718
N           -0.15372045005810        2.29267924229777        1.43885731746717
H            4.93200929459661       -0.87890103550667        0.12258056672315
H            5.56250634241527        0.75135624365258       -0.15796316347045
H            5.50696259383081        0.10717136953890        1.47677340003383
H            4.36002393897557        2.58795808645904        1.47197822170569
H            2.11742942208544        3.54328947909031        1.86348702946694
H            2.58449651386178       -1.00255778462530       -0.04410928305631
H           -1.05781444533069        1.84042698519555       -1.47221216989861
H           -0.74158000782698        2.30731830541452       -3.84543417505166
H            0.60781367103549        0.78221344584169       -5.25574315909542
H            1.65172636303846       -1.21235536861502       -4.22764454542869
H            1.36223705854746       -1.67561083520698       -1.85270613549485
H           -0.91973075336284       -2.41449527735384       -1.38923780356154
H           -0.98721476037243       -4.74490689602531       -0.64219185909419
H           -0.16398425786369       -5.36095289620864        1.60420081771891
H            0.70695817348819       -3.60035730050341        3.10846671446037
H            0.78381230063048       -1.26488934449781        2.35788707709917
H           -2.56587170267858       -1.16058483754747       -0.24457701054485
H           -4.90711662655225       -1.29357703477896       -0.05878525829651
H           -5.58091911518357       -0.52471758492355        1.38633097432147
H           -5.69505652745501        0.28733650899093       -0.16901933167979
H           -4.65837428196930        2.01407143996964        1.71862490042819
H           -2.52028189262788        3.16169453419218        2.15421155571912
H           -0.20321994686482        3.19682553575000        1.89713846336810
