  171
       -250.39782978
 C         -8.9661185672        4.8461128532       -0.8498757308
 C         -7.4838681383        5.1944750017       -1.0124364544
 C         -7.0749528737        6.0838408231        0.1695251098
 C         -7.3185123955        5.9721191271       -2.3264604047
 C         -6.5962368540        3.9589402976       -1.0567054532
 C         -5.2115627246        4.1210132720       -1.1891060473
 C         -4.3336148462        3.0583191311       -1.2670368698
 C         -4.8535386585        1.7753647943       -1.2010664171
 C         -6.2457704363        1.5869287796       -1.0811363543
 C         -7.1058572007        2.6726225548       -1.0059240742
 C         -6.4701925096        0.1691371249       -1.0960340345
 C         -7.6158869522       -0.6057793183       -0.9775663105
 C         -7.5175159775       -1.9863548389       -1.0059120350
 C         -8.7259098641       -2.9006605207       -0.8660365861
 C        -10.0325715828       -2.1227006692       -0.6882338806
 C         -8.8537313897       -3.7668587950       -2.1270109540
 C         -8.5368378744       -3.8003850668        0.3639926654
 C         -6.2496159209       -2.5622206374       -1.1571297908
 C         -5.0958618544       -1.8147676751       -1.2734578459
 C         -5.2061024590       -0.4339304855       -1.2503768189
 N         -4.2303325599        0.5451048403       -1.3067573003
 C         -2.8686081990        0.3173099399       -1.5101307129
 C         -2.4566819385       -0.6019300376       -2.4750620398
 C         -1.1147674525       -0.8562854476       -2.6696719400
 C         -0.1578319723       -0.1937814245       -1.9088877404
 N          1.2215834296       -0.4584729175       -2.1089289764
 C          1.7452175011       -1.6811715764       -1.7156737460
 C          0.9249498395       -2.6474765965       -1.1251305141
 C          1.4400714250       -3.8607809008       -0.7156011056
 C          2.7857744113       -4.1409988132       -0.8798663571
 C          3.6041542787       -3.1893916743       -1.4593993089
 C          3.1041012700       -1.9663330527       -1.8804146912
 C          4.0604096535       -0.9777769411       -2.4977854224
 C          4.8329870809       -1.5971927745       -3.6451148062
 C          4.3385754189       -2.1437940507       -4.8080892349
 C          5.2368400017       -2.6508957554       -5.7378289300
 C          6.6023115101       -2.6059321568       -5.5017697494
 C          7.1047440395       -2.0552026154       -4.3333632979
 C          6.2136432184       -1.5494497360       -3.4016519143
 C          6.4358264559       -0.9200968906       -2.1078180832
 C          7.6095818648       -0.5781803300       -1.4529200633
 C          7.4932880323        0.0648480936       -0.2292548847
 C          6.2358256246        0.3236409431        0.3372933610
 C          5.0669886817        0.0001971827       -0.3218378739
 C          5.1848251471       -0.6147922272       -1.5503337081
 C          6.3854063792        1.0504799538        1.6656250490
 C          7.8789392530        1.2476410522        1.7326320393
 C          8.6154724758        1.8906736663        2.7045005103
 C          9.9982696342        1.9200001070        2.5811068539
 C         10.6271168564        1.3082370126        1.5071275755
 C          9.8916781889        0.6590503992        0.5281942743
 C          8.5114940641        0.6310213681        0.6427642676
 C          5.8799284649        0.1819951519        2.7921819001
 C          6.7103038886       -0.6988421233        3.4666958405
 C          6.2156902813       -1.5166746397        4.4669746855
 C          4.8752849326       -1.4479900141        4.8070412338
 C          4.0368399007       -0.5738844379        4.1455759001
 C          4.5251815576        0.2372273082        3.1204845539
 N          3.6660965491        1.1294058296        2.4774356870
 C          2.3162526338        0.7440975127        2.3740832189
 C          1.2587550700        1.5348932671        2.8223228220
 C         -0.0446861582        1.1055254736        2.6655996730
 C         -0.3155597217       -0.1378639948        2.0994705587
 C         -1.6865981586       -0.6047789679        1.9215054803
 N         -2.6786251316        0.2641773222        2.0859369479
 C         -3.9038369852       -0.2170729248        1.8972992634
 C         -5.0292938942        0.7083797741        2.0020388778
 C         -4.8015297345        2.0777603906        2.1165446170
 C         -5.8658000583        2.9488561377        2.2278386819
 C         -7.1631285776        2.4614502987        2.2258671131
 C         -7.3948901111        1.1003674933        2.1082057643
 C         -6.3346420284        0.2233843860        1.9920242255
 N         -4.1681310569       -1.4967761337        1.6468602556
 C         -3.1199982004       -2.2971578728        1.5299331560
 C         -3.3592899332       -3.7566838530        1.2663441116
 C         -2.2941046089       -4.6208251018        1.9466998642
 C         -2.4524488664       -4.5785595598        3.4632801460
 C         -3.8498982963       -5.0341254962        3.8706800110
 C         -4.9054224489       -4.1516782455        3.2123114826
 C         -4.7642561391       -4.1816641667        1.6939034490
 N         -1.8623411610       -1.8867903130        1.6107783413
 C          0.7446191794       -0.9567650632        1.7134160072
 C          2.0406526196       -0.5161049687        1.8343766253
 C          4.1945392401        2.2639402343        1.8606673677
 C          3.4009170284        3.3500710838        1.4951635244
 C          3.9662611222        4.4898818875        0.9554330407
 C          5.3334864162        4.5732411271        0.7682521570
 C          6.1213382480        3.4730091163        1.0575070953
 C          5.5682841744        2.3169780010        1.5801322129
 C          3.3698232244        0.2900816654       -2.9457837283
 C          4.1248501183        1.2684126702       -3.5747904722
 C          3.5542975273        2.4493671525       -4.0104957483
 C          2.1975387918        2.6499498370       -3.8247120253
 C          1.4310697718        1.6872928301       -3.2007738807
 C          2.0046128368        0.5000506619       -2.7354768475
 C         -0.5639213379        0.7431271252       -0.9656560668
 C         -1.9065186886        0.9984861853       -0.7667713902
 H         -9.1376590522        4.2883142039        0.0678620753
 H         -9.3258148942        4.2617322433       -1.6936350010
 H         -9.5519680326        5.7620780156       -0.8024441271
 H         -6.0336948104        6.3856659477        0.0991137345
 H         -7.6883449488        6.9824673171        0.1923247849
 H         -7.2139636198        5.5483370941        1.1058859521
 H         -7.9698566461        6.8437681043       -2.3330219983
 H         -6.2947896592        6.3110699660       -2.4594105697
 H         -7.5795682960        5.3394098175       -3.1724458016
 H         -4.7987900234        5.1167950624       -1.2462871050
 H         -3.2766536546        3.2347060074       -1.3978424485
 H         -8.1625914279        2.4857047658       -0.9209705468
 H         -8.5626921363       -0.1080594503       -0.8551758456
 H        -10.8617461959       -2.8213288809       -0.5945573293
 H        -10.2277788582       -1.4837655256       -1.5463992332
 H        -10.0039109040       -1.5129431648        0.2119027070
 H         -8.9756164255       -3.1361308633       -3.0052800542
 H         -7.9730591391       -4.3861747744       -2.2730715511
 H         -9.7200614124       -4.4204649960       -2.0482757188
 H         -9.4137565395       -4.4282369259        0.5082834683
 H         -8.3968308441       -3.1937540512        1.2565078311
 H         -7.6718037810       -4.4473934054        0.2527788379
 H         -6.1578023758       -3.6368870607       -1.1844573121
 H         -4.1380985640       -2.3023572876       -1.3655521339
 H         -3.1946749971       -1.0961196167       -3.0877905514
 H         -0.7990883831       -1.5672119974       -3.4191949672
 H         -0.1233719056       -2.4419074506       -0.9774557351
 H          0.7835906426       -4.5896887537       -0.2626910076
 H          3.1930351016       -5.0875306772       -0.5596216679
 H          4.6570564987       -3.3913108063       -1.5920300865
 H          3.2743336827       -2.1774379753       -4.9924200634
 H          4.8679937023       -3.0845530261       -6.6556221718
 H          7.2830436710       -3.0055013857       -6.2391994973
 H          8.1694840119       -2.0230329207       -4.1547659157
 H          8.5757548656       -0.7814993801       -1.8896462979
 H          4.0942606978        0.2410883014        0.0756646645
 H          8.1252001061        2.3624004650        3.5439680963
 H         10.5907298797        2.4228321866        3.3311109723
 H         11.7043277124        1.3396465220        1.4330587918
 H         10.3867302876        0.1846779793       -0.3061702191
 H          7.7542711496       -0.7520708188        3.1979519819
 H          6.8738467270       -2.2027427973        4.9774662962
 H          4.4801197181       -2.0727540821        5.5939146376
 H          2.9944947553       -0.5135199195        4.4202445194
 H          1.4588036421        2.4679565281        3.3267215805
 H         -0.8682417443        1.7158957700        3.0023695927
 H         -3.7852989378        2.4390716470        2.1200366543
 H         -5.6842729175        4.0095402288        2.3168146493
 H         -7.9955105099        3.1436986515        2.3216883936
 H         -8.4073853148        0.7239541034        2.1068504760
 H         -6.4914806629       -0.8385072099        1.8923194266
 H         -3.2658884659       -3.8874450033        0.1807813211
 H         -2.3996752598       -5.6506982961        1.5984419877
 H         -1.3052462563       -4.2569811920        1.6682532329
 H         -1.6985747536       -5.2166282490        3.9297445465
 H         -2.2866970502       -3.5569295415        3.8112705554
 H         -3.9534849746       -4.9928335502        4.9571643073
 H         -3.9975640399       -6.0715625484        3.5596951540
 H         -4.7891296918       -3.1235832862        3.5589111763
 H         -5.9050808132       -4.4896035920        3.4945111355
 H         -5.4896935689       -3.5059921213        1.2441118101
 H         -4.9500752877       -5.1956592128        1.3319575571
 H          0.5309255623       -1.9288629255        1.3034378744
 H          2.8563496492       -1.1509468852        1.5207974696
 H          2.3310628104        3.3035431837        1.6067898174
 H          3.3282709196        5.3173730807        0.6827737273
 H          5.7791565278        5.4694632862        0.3654319566
 H          7.1808665885        3.4992749861        0.8511908988
 H          5.1800181581        1.0946490826       -3.7244731063
 H          4.1594233263        3.1995833182       -4.4953292466
 H          1.7281871494        3.5588018055       -4.1710916808
 H          0.3721795223        1.8521490799       -3.0779090816
 H          0.1812021225        1.2661792871       -0.3856998823
 H         -2.2163781787        1.7015622640       -0.0106992068
