171
 energy: -250.480988010722 gnorm: 0.000058054808 xtb: 6.7.1 (edcfbbe)
C           -8.71732960100665        4.93620789999078       -0.77006629075362
C           -7.21766555296011        5.23606658937741       -0.85296227021934
C           -6.83532003957943        6.08765268195996        0.36566730118695
C           -6.96194473770954        6.03292346249804       -2.14163379434660
C           -6.37090974607847        3.97066223239390       -0.87958159457221
C           -4.97758842516164        4.08584891096820       -0.96473710473539
C           -4.13389695619876        2.99470584219513       -1.03149117068629
C           -4.69853710285150        1.72966882099842       -1.00212090627459
C           -6.09847980641993        1.58639939514934       -0.92506753222423
C           -6.92362874714712        2.70075677498373       -0.85985375835242
C           -6.37152541447512        0.17686891971622       -0.98205652885101
C           -7.54862645232049       -0.55877561316002       -0.94976004464339
C           -7.50109536197071       -1.94083641700014       -1.03098324503162
C           -8.75236050055532       -2.80917792551612       -1.02639742913193
C          -10.04046513849976       -1.98347344912979       -0.95334835477104
C           -8.79406268077425       -3.63879290630967       -2.31868658845669
C           -8.71509475106692       -3.74593148744981        0.19002481198351
C           -6.24662504317434       -2.55855111784632       -1.12006679454727
C           -5.06197332413147       -1.85058805339854       -1.15349530994751
C           -5.12464901475355       -0.46744739790037       -1.10559125191862
N           -4.11154030744009        0.47730211804720       -1.11102661373742
C           -2.76139829768730        0.22471091185807       -1.36970769488094
C           -2.39799877119331       -0.64873732234432       -2.39525743305182
C           -1.06717348113436       -0.88773137821559       -2.67200489455512
C           -0.07214649353964       -0.25637509664524       -1.93281508176468
N            1.29913459176221       -0.47706562195136       -2.23016983772638
C            1.88199024998117       -1.70157288473768       -1.93270694099652
C            1.12272990877773       -2.73080631556126       -1.36852962003214
C            1.69139990724548       -3.95186491475172       -1.06655253813097
C            3.03442498134288       -4.17684759852253       -1.31589859681075
C            3.79542426534222       -3.16097235217559       -1.86399302031378
C            3.24088917241762       -1.92792604381666       -2.17513825549768
C            4.14092364925685       -0.85845358980865       -2.74159910288117
C            4.96228780970757       -1.37154093254970       -3.90831975652014
C            4.51524470920354       -1.89372735857295       -5.10200595291067
C            5.45337670924720       -2.29179824816072       -6.04583672448448
C            6.81113135688025       -2.16398595115983       -5.79406975478159
C            7.26585613552825       -1.63708883736245       -4.59521687444417
C            6.33486983727475       -1.24020118219253       -3.64917830719601
C            6.50462852612323       -0.66455808685970       -2.32227843292698
C            7.65008352055687       -0.28871180019618       -1.63628055999904
C            7.48636275848387        0.26774287789990       -0.37613397951113
C            6.21156572193411        0.40644467481422        0.19429527285423
C            5.06963531225669        0.04854262594428       -0.49452361232186
C            5.23234752756476       -0.47446376685080       -1.76091221008409
C            6.30597719813960        1.04868643823152        1.57095748411603
C            7.78601173631704        1.33109057930902        1.66793129544958
C            8.47529127944948        1.94950825783237        2.68968887057299
C            9.85425068957616        2.07539822212786        2.58116061055326
C           10.52654599617732        1.58254960594761        1.47249476439149
C            9.83881318024795        0.95868197863742        0.44332890674435
C            8.46229291161218        0.83510137874042        0.54304328696692
C            5.84806102365317        0.07442303324948        2.63079296180542
C            6.72574634324286       -0.82241306947240        3.22080469943877
C            6.28630369748074       -1.73400975688983        4.16407917441636
C            4.95224604542797       -1.74387535497879        4.53496663781229
C            4.06666793564464       -0.85592664051332        3.95825402224660
C            4.49899861752852        0.04833574865948        2.98673818051652
N            3.59155829323833        0.95202644068734        2.42889286537092
C            2.24181475217703        0.55445535504094        2.37879781997008
C            1.21049405330672        1.29577817330113        2.95565858881633
C           -0.09720927846680        0.86492102425793        2.84905471285359
C           -0.39849046538456       -0.33265831794533        2.20398348038111
C           -1.78028578836069       -0.78773261399848        2.08005504432067
N           -2.74771067955953        0.10948575947774        2.23893463039746
C           -3.98764591455628       -0.34838006059986        2.09306086504622
C           -5.08551177899533        0.60876634804666        2.19651303430265
C           -4.81620988208056        1.96937958329900        2.33384728755736
C           -5.85301239226511        2.87274770280859        2.45070214255495
C           -7.16533625420589        2.42748827788979        2.42938410483471
C           -7.43978933846835        1.07632182208992        2.28756648712656
C           -6.40673320940249        0.16747662958316        2.16808566938905
N           -4.28747762957861       -1.63071907277108        1.89399355527942
C           -3.26038151250746       -2.45782923828136        1.78492514011932
C           -3.52986186992596       -3.92138530100780        1.57206897867239
C           -2.54464579885486       -4.78234008814266        2.37060902541756
C           -2.82334119197259       -4.67953264766980        3.86731495727016
C           -4.25813908752838       -5.09664749656857        4.17519700282245
C           -5.23980876794401       -4.21984822708885        3.40389995371407
C           -4.97400438282511       -4.29886956401362        1.90313161364675
N           -1.98947176998360       -2.07630122900678        1.82210353973264
C            0.63892783801084       -1.10422348981076        1.68230832484896
C            1.93866396314068       -0.65991273120094        1.75521122760199
C            4.05918659527361        2.14442379811932        1.87090620167967
C            3.21018245738433        3.21362281826475        1.58651426921160
C            3.70955373726594        4.40457855051629        1.09420199879631
C            5.06611483488230        4.55696287059953        0.87341445220819
C            5.90778151150050        3.47973069902924        1.08653505548208
C            5.42153623318255        2.27347688304634        1.56341504730810
C            3.37697367566866        0.38595302102539       -3.13757097239473
C            4.05954299091962        1.41293879866402       -3.77355100431255
C            3.41922289588863        2.57641346412495       -4.15659459127893
C            2.06366605820717        2.71121936297216       -3.91098542344066
C            1.36843736448235        1.70029214461135       -3.27942064195012
C            2.01376801626062        0.53067823342118       -2.86706735016821
C           -0.43152843706290        0.61851011489891       -0.91372024702384
C           -1.76255129144457        0.85741050256921       -0.63233303137765
H           -8.95355946865005        4.37244670299984        0.12904909816310
H           -9.05226244999445        4.37656741825939       -1.64033914722623
H           -9.27238665569181        5.87170472447694       -0.73806049539808
H           -5.78204225266022        6.35352567955085        0.35035136858698
H           -7.41833343338354        7.00635724076884        0.37677335581438
H           -7.03812879095956        5.53905415565093        1.28229922653959
H           -7.58822462657377        6.92245922991736       -2.16269597704198
H           -5.92418968865914        6.34606221753892       -2.21545799020622
H           -7.19640193814055        5.42434461030085       -3.01295651049533
H           -4.52783273898132        5.06668577609523       -0.99315851816376
H           -3.06785129553481        3.13667814179774       -1.12594629782069
H           -7.98813516536180        2.54787295402338       -0.81011852570895
H           -8.48222236237132       -0.03006336787233       -0.85979869937349
H          -10.89928907939303       -2.65154163093356       -0.96986757867407
H          -10.12165735108302       -1.31031674993213       -1.80366447249741
H          -10.08337563894226       -1.40527484910880       -0.03363684395376
H           -8.79683290922144       -2.98258849447013       -3.18692457660199
H           -7.93552253550688       -4.30021164240959       -2.39492086019327
H           -9.69534152508313       -4.24772963915441       -2.34290308225249
H           -9.61713660887634       -4.35337228410385        0.22235373630844
H           -8.65606249799218       -3.16704219120175        1.10955637340861
H           -7.85794889477067       -4.41205774451839        0.15106713836575
H           -6.18869855768479       -3.63516577469797       -1.17031342446265
H           -4.11550600516567       -2.36917015563465       -1.20807959221878
H           -3.16574601682462       -1.11641507671571       -2.99285752234469
H           -0.79185139760179       -1.55611933774424       -3.47463826811507
H            0.07567092131329       -2.56794493555802       -1.16304795401387
H            1.07902591484074       -4.72904890122885       -0.63284857863101
H            3.48487160731412       -5.12912861355274       -1.08201251886192
H            4.84704762542350       -3.31842127679774       -2.05614409868064
H            3.45735967959882       -1.99252367020445       -5.29938512784600
H            5.12090014572324       -2.70527607816843       -6.98682717854824
H            7.52326629459380       -2.47918261112480       -6.54310514841781
H            8.32437874576740       -1.53997891733180       -4.40437209496218
H            8.62960311136050       -0.40575335513111       -2.07420333052921
H            4.08295796042250        0.19005530964932       -0.08095543001843
H            7.95251254637524        2.32866058314872        3.55601240500948
H           10.40952328209539        2.56047796211162        3.37069975378806
H           11.60017670815360        1.68780380540496        1.41076670240014
H           10.36691011829637        0.57725609312367       -0.41789087704841
H            7.76558241767851       -0.81159507047221        2.93076125434833
H            6.98226883256455       -2.42952901282019        4.60759700150106
H            4.59769408312386       -2.44018261827934        5.28029858234768
H            3.02985521104452       -0.85781156035907        4.26016842346475
H            1.43674042432610        2.18962468042270        3.51676135354811
H           -0.90014766437618        1.43860351820115        3.28657993732082
H           -3.78850639852841        2.29782173267588        2.35034023065246
H           -5.63643238347057        3.92444773687216        2.55911266110750
H           -7.97590569371562        3.13412300311456        2.52735142805276
H           -8.46285673268430        0.73212636556855        2.27226542535907
H           -6.59695360749655       -0.88804714022442        2.05176541980653
H           -3.35148644356159       -4.10133886992147        0.50261237377741
H           -2.64934495449386       -5.82224813492053        2.05394898474867
H           -1.52599347141975       -4.45514510518365        2.15785013491523
H           -2.12170062871631       -5.31265791484448        4.41474896741870
H           -2.66460694779005       -3.64736828785287        4.19392470921593
H           -4.44806888649490       -5.01429687106632        5.24756217203838
H           -4.39932493526957       -6.14102450166237        3.88728273890011
H           -5.13796300061739       -3.18213509975195        3.73014468872699
H           -6.26448564505467       -4.53594848406854        3.60982150166109
H           -5.64790934731727       -3.62539527292178        1.37309135273573
H           -5.15386734713933       -5.31975337167594        1.55851369338798
H            0.40515119239208       -2.04051175575283        1.20269104509460
H            2.73616617914046       -1.25486820271703        1.33444258490528
H            2.14676700078583        3.11476470187156        1.72716872138574
H            3.02843479880649        5.21595860161867        0.88415030962011
H            5.46222058477211        5.49090268327656        0.50528061652253
H            6.95963766114565        3.56510160983764        0.85686342549086
H            5.11500048077642        1.29251873467456       -3.96961399258100
H            3.97072889149031        3.36393899822749       -4.64663595908150
H            1.53953360248466        3.60536260181252       -4.21471129247602
H            0.30911414586343        1.81323955567678       -3.10732739641141
H            0.34014191750536        1.11433067766075       -0.34453362237647
H           -2.03458661727049        1.51661723579564        0.17695846939284
