171
 energy: -250.406406428569 gnorm: 0.000083048767 xtb: 6.7.1 (edcfbbe)
C           -7.40373377349774        4.98900778036671       -2.14488542856848
C           -5.89475691683222        5.12009459573881       -2.37200395421408
C           -5.34476497278613        6.14399554441534       -1.36779308513924
C           -5.67281057130598        5.62718735250118       -3.80511672229300
C           -5.16078837237050        3.79959371239608       -2.18742371469480
C           -3.77509389663750        3.75800043604296       -2.38807986988253
C           -3.02659314372574        2.60609828213534       -2.24503676801762
C           -3.68056895579942        1.44152881486877       -1.86958864645688
C           -5.07920125505441        1.45284548006495       -1.69339736408843
C           -5.80935943544627        2.62291008290495       -1.84556258280990
C           -5.46866109709232        0.09924421261364       -1.40745083859851
C           -6.70164721995669       -0.49012859068548       -1.17156011469565
C           -6.78037019667679       -1.85645172320284       -0.95211498349595
C           -8.10260863198219       -2.58266357464243       -0.75624020297455
C           -8.04003580383941       -3.42622358185384        0.52580319720829
C           -9.28344394528725       -1.61504230401816       -0.63713370742196
C           -8.34442531903989       -3.49756107070636       -1.96705428970050
C           -5.59004499485425       -2.59237220175479       -0.92861176098645
C           -4.34834184150307       -2.02582689679013       -1.13860556963607
C           -4.28731850008888       -0.66940475062166       -1.41818338307721
N           -3.20397721287038        0.14945596047497       -1.69896530858067
C           -1.87620595505411       -0.25591260849826       -1.81671491512112
C           -1.55080804682273       -1.44986283848502       -2.46384572389731
C           -0.23674382604387       -1.86379309384378       -2.55191689938282
C            0.78123945452143       -1.07260811988747       -2.03033433634673
N            2.14423907695028       -1.46585983829370       -2.11001286612096
C            2.63235826239184       -2.46200510625195       -1.27873141685167
C            1.76481034805826       -3.21811663106593       -0.48421523167755
C            2.24846664067843       -4.22715111244884        0.32295423597437
C            3.60586400142030       -4.50438723912991        0.35846114621549
C            4.47473960713709       -3.73952040603274       -0.39878588801280
C            4.00930607699859       -2.71814568395001       -1.21249018017441
C            4.99194461979691       -1.82047190685032       -1.91579735367469
C            6.24378038513334       -2.52408565814421       -2.39145154214629
C            6.34713244256577       -3.59151170552929       -3.25669827564126
C            7.61311488393633       -4.06327930367752       -3.58008662568498
C            8.74867860663084       -3.46833253282010       -3.05094668422878
C            8.64982636130102       -2.39138605795292       -2.18343941517544
C            7.38990712761484       -1.91967402355408       -1.85241673596412
C            6.97555223213790       -0.84129430517669       -0.96582244120082
C            7.72334026818090        0.06854603669925       -0.23322018913101
C            7.03013033998741        0.98283918076385        0.54644325128326
C            5.62960618808712        0.94862995750865        0.62484088140032
C            4.88045344854936        0.06450199479703       -0.12506534518623
C            5.57299294840337       -0.81117894102426       -0.93633158795948
C            5.11646606289866        2.02353921352420        1.57380638060935
C            6.39980690124983        2.74175299251227        1.92769991097606
C            6.56341655429150        3.85195758399649        2.72768268223471
C            7.85043413176567        4.32466224910032        2.95103435580471
C            8.94732370031612        3.68854191903818        2.38904479163231
C            8.78759739908305        2.56984218471972        1.58595945187696
C            7.50617094588521        2.09664804668628        1.35437501860690
C            4.50640335394592        1.37090762963512        2.79072410430682
C            5.31433755879098        0.88547071843929        3.80769712251537
C            4.77201465872541        0.26334109896642        4.91764323909924
C            3.39541113898010        0.13277826295300        5.02247018307773
C            2.57676594088200        0.60052069404577        4.01736445454312
C            3.11848047131456        1.20609481974543        2.87696706638892
N            2.28137435443861        1.66037702359528        1.86882407434487
C            0.95586372144680        1.15583100331833        1.83652849631005
C           -0.16311144213763        1.97928637883545        2.01257390062507
C           -1.42682338736011        1.44747871806717        1.97612096563823
C           -1.63087585189766        0.05891081496636        1.80991635983475
C           -2.94081989656696       -0.49045452600949        1.83583052948362
N           -4.00344908510910        0.31553412533564        1.82907918591778
C           -5.20392680543770       -0.19862257206221        1.95570414422631
C           -6.35054864210367        0.68333099516475        1.91702351899504
C           -6.20279046726058        2.02725089327658        1.55392308945166
C           -7.29504862968512        2.86696177061497        1.53169476126550
C           -8.55619312686774        2.39107110783012        1.86622999264686
C           -8.71228896029086        1.06137605757815        2.23269023317492
C           -7.62340490931531        0.21492732730133        2.25978809642949
N           -5.41370365153544       -1.53186460612867        2.17423635295380
C           -4.31988512291089       -2.28364053972271        2.14833260750812
C           -4.56247095497892       -3.74230012713888        2.46110431385783
C           -3.71188599670216       -4.72448871647439        1.65402331773716
C           -2.24530024375787       -4.71433812202079        2.06970001227867
C           -2.10138218286226       -4.98055465333709        3.56362055887803
C           -2.88027381478576       -3.92981288060558        4.34844565315294
C           -4.35577639933109       -3.97079624298698        3.96688456909487
N           -3.10331784595080       -1.85491403741242        1.93870328931402
C           -0.49039232702438       -0.76113014385186        1.67094283404300
C            0.76914670596577       -0.22342946005412        1.67070898503905
C            2.73823669184250        2.57159874462794        0.92926957870317
C            1.85657863038574        3.21306034693663        0.05102921587648
C            2.31186701282334        4.15614654321485       -0.84666354918851
C            3.65739930326083        4.48445529499817       -0.89548156762149
C            4.54577289495050        3.82006023484616       -0.06883005885256
C            4.10925028991570        2.86199936781414        0.83235792174386
C            4.34056970561812       -1.03933627685126       -3.03539135566327
C            5.11899455896767       -0.43585900866978       -4.01126847313785
C            4.54963805368521        0.34358231219667       -5.00209217084939
C            3.17627100968248        0.52771634520202       -5.02051187535044
C            2.38473576894733       -0.06599731545912       -4.06001186912430
C            2.95358010024367       -0.85204379663290       -3.05229271596266
C            0.46660231776663        0.14122645717938       -1.43152112410347
C           -0.84835055531461        0.53712926840790       -1.30780504408714
H           -7.62015184990049        4.64132537813305       -1.13768484405224
H           -7.84785545178677        4.30001222346660       -2.85989848477118
H           -7.87606580292835        5.96071227784438       -2.27550763623548
H           -4.28527648262126        6.32534769627516       -1.52626904204124
H           -5.87241512504897        7.08994826859119       -1.47050264926775
H           -5.47888730944950        5.78217529842389       -0.35025401342684
H           -6.22287380166250        6.55260208398514       -3.96227748512455
H           -4.62184305302388        5.81880188201502       -4.00207291193945
H           -6.02579458192547        4.88900691411036       -4.52261673123260
H           -3.25559934494900        4.65907368956788       -2.67593632193608
H           -1.96673932079701        2.62380912037846       -2.44649789501395
H           -6.87496609710853        2.58466760176394       -1.69533012750664
H           -7.57864072673239        0.13503891054268       -1.16361468565292
H           -7.39762370852356       -4.29393129196058        0.39830204746104
H           -9.03289480752652       -3.78097686453191        0.79425925946682
H           -7.64559444862998       -2.82660018218936        1.34355561829120
H           -9.13279594591753       -0.92710738183645        0.19149303120151
H           -9.41767904253267       -1.04520799018474       -1.55378142151509
H          -10.19767090092586       -2.17683922074655       -0.45635975268784
H           -9.27588368104054       -4.04529356313923       -1.84077982190555
H           -7.53553401818772       -4.21470069930145       -2.08281539550839
H           -8.40928161371133       -2.90677346228382       -2.87868898485002
H           -5.63309089676910       -3.65284882258581       -0.73280427231954
H           -3.45617690857189       -2.62970420759587       -1.06493536188675
H           -2.33062674322837       -2.04165850937488       -2.91697997098055
H            0.00692246310576       -2.79259646584660       -3.04623741258071
H            0.70810130905964       -3.00292623478798       -0.49558379883861
H            1.56170618985055       -4.79776174283836        0.92949759801071
H            3.98596949837006       -5.29646864983817        0.98490613052965
H            5.53753922769850       -3.92615372605749       -0.35312078848573
H            5.46305633255303       -4.05407782043182       -3.67100066917381
H            7.71368329635244       -4.90232846256957       -4.25281180705440
H            9.72319626625534       -3.85064486492442       -3.31818672523703
H            9.53760370062795       -1.93355701242225       -1.77342919729096
H            8.80141197633822        0.07322457276868       -0.27710470580348
H            3.80080010994226        0.06310492039536       -0.08807664887755
H            5.70948576895360        4.34451039501304        3.16988379625050
H            7.99815861413440        5.19627744382898        3.57163503839245
H            9.93946697144456        4.07136044521103        2.57961536417716
H            9.64555444036484        2.07926533651931        1.15116938079854
H            6.38506226108788        0.99656431820686        3.72658096111761
H            5.41755342295462       -0.10974398518200        5.69761970351688
H            2.95645666755137       -0.33181648215436        5.89266927027010
H            1.50563699441371        0.50757175841668        4.10894810171139
H           -0.02382422561140        3.03368633112581        2.20579433374244
H           -2.29431957255901        2.07673998884745        2.11058587754524
H           -5.22026347689973        2.38696754171973        1.28751988437685
H           -7.16840796766917        3.90361367455327        1.25361993825629
H           -9.41010228465219        3.05218673390294        1.84485716572931
H           -9.69082457440058        0.68803572910457        2.50121544251850
H           -7.72878749486617       -0.81821097341928        2.55426024143300
H           -5.62016121264904       -3.91588036137917        2.23598845515560
H           -4.12316413222014       -5.72691521145424        1.80715339445361
H           -3.79345992409343       -4.48792849732351        0.59127651014798
H           -1.69985221893946       -5.46706442614036        1.49521079870096
H           -1.83213158941067       -3.73105198629525        1.84355783699638
H           -1.04724412644419       -4.95057617200284        3.84766417630798
H           -2.48844564459752       -5.97488258043135        3.80134196615776
H           -2.47552783189079       -2.94050257617947        4.12119263958314
H           -2.77516160254256       -4.10150923289525        5.42242669339835
H           -4.91393248234813       -3.21448443769138        4.52599662899567
H           -4.76784458906597       -4.95000493303471        4.22558216336353
H           -0.63314488636576       -1.82393018333881        1.55515234330588
H            1.63445781087447       -0.86100120737479        1.55080794806387
H            0.80800916108395        2.96623803653932        0.07268490750371
H            1.60952148114592        4.63715272165728       -1.51079795616208
H            4.01519634312219        5.23035216376515       -1.58805517203809
H            5.60275739587608        4.03285082041206       -0.13060421502593
H            6.18925571789961       -0.57538957666079       -3.98962528978292
H            5.17367099545133        0.80422515820167       -5.75221291098185
H            2.71745298417844        1.13135818048717       -5.78900562410025
H            1.31465917822929        0.06919841141196       -4.08773308324673
H            1.25966642371525        0.76648857667677       -1.05140460096322
H           -1.09040834571389        1.44450627482563       -0.78028611196662
