  71
       -105.23060969
 C         -8.5560899955        2.9684897472       -0.4902689264
 C         -7.2585043295        2.4708220183       -1.1138622524
 C         -6.2186472774        3.5839359571       -1.2086276698
 C         -4.9325134456        3.1301916561       -1.9158345645
 C         -4.2188294638        2.0711893900       -1.1493445074
 C         -3.4120661622        2.2243071723       -0.0588743661
 C         -2.9443392799        0.9993725134        0.4444162261
 C         -3.3986586816       -0.0882926145       -0.2826351942
 S         -4.4140639130        0.3937939561       -1.5815555003
 C         -2.9475025267       -1.3554030012        0.1877212058
 S         -3.1419239681       -2.9651255877       -0.3826958700
 C         -2.1308219977       -3.5709433458        0.9030781953
 C         -1.7728198202       -5.0146983995        0.9465287485
 C         -0.6738381658       -5.3440015727       -0.0762060774
 C          0.6341798874       -4.6139286869        0.2188832801
 C          1.7134387140       -4.9539025327       -0.8013346760
 C         -1.6916320062       -2.5693472533        1.7185952432
 C         -2.1623739309       -1.3055195496        1.3255257898
 P         -1.8398741585        0.4290434605        1.7725606751
 O         -2.0759896060        0.8858563357        3.1432827953
 C         -0.1418761833        0.6621649750        1.1723652222
 C          0.8195314926        1.0855617545        2.0781704072
 C          2.1446221076        1.1673565116        1.6968136783
 C          2.5146727271        0.8290106085        0.3963665804
 N          3.8547572535        0.8737442520        0.0052384623
 C          4.5287934356       -0.1339186625       -0.6613812377
 C          4.0882559329       -1.3944412177       -1.0384426675
 C          4.9875939082       -2.2290296670       -1.6745271256
 C          6.2989276187       -1.8311200078       -1.9233284523
 C          6.7509862719       -0.5891148886       -1.5246078158
 C          5.8652173578        0.2673688076       -0.8843988507
 C          5.9956745122        1.5847426814       -0.3263235088
 C          7.0462204903        2.4899941647       -0.2561253279
 C          6.8256953693        3.7132943331        0.3443343457
 C          5.5727722494        4.0442638387        0.8550278984
 C          4.5119103700        3.1604744216        0.7956473263
 C          4.7348915763        1.9193809596        0.2174165742
 C          1.5394948067        0.4280706267       -0.5187573439
 C          0.2207883027        0.3366834114       -0.1291672371
 H         -9.2831112172        2.1624350900       -0.4286352714
 H         -8.9839045739        3.7721221006       -1.0859791853
 H         -8.3756135100        3.3453550743        0.5139901553
 H         -7.4614498681        2.0798085196       -2.1138812968
 H         -6.8622461497        1.6515930037       -0.5107498513
 H         -5.9701494809        3.9351194383       -0.2049931436
 H         -6.6402737825        4.4243211350       -1.7642995781
 H         -5.1829711648        2.7547038321       -2.9100321824
 H         -4.2693744067        3.9915319961       -2.0301744185
 H         -3.1659606310        3.1805650513        0.3678112818
 H         -1.4220860812       -5.2627942039        1.9504855209
 H         -2.6537354949       -5.6222918055        0.7277094471
 H         -0.4966934035       -6.4212936661       -0.0651160240
 H         -1.0253412791       -5.0721331226       -1.0743402644
 H          0.4582756255       -3.5354889079        0.2146507613
 H          0.9808743377       -4.8871788142        1.2181991885
 H          1.9090227052       -6.0240550369       -0.8083537618
 H          2.6402721722       -4.4381174084       -0.5609284100
 H          1.4018885389       -4.6568934905       -1.8005704224
 H         -1.0605003557       -2.7334471046        2.5740309204
 H          0.5111214079        1.3324513656        3.0838860452
 H          2.9018018227        1.4643043589        2.4068620775
 H          3.0803938777       -1.7223839138       -0.8327018187
 H          4.6667236674       -3.2131213007       -1.9835506704
 H          6.9704941861       -2.5114643575       -2.4252989823
 H          7.7727848043       -0.2877406902       -1.6987466440
 H          8.0118514392        2.2390490688       -0.6682964124
 H          7.6295123507        4.4310383609        0.4120912428
 H          5.4255706871        5.0146645541        1.3056222559
 H          3.5404978743        3.4362593617        1.1771981852
 H          1.8267618267        0.1988545173       -1.5340097702
 H         -0.5339271066        0.0174814611       -0.8337497030
