  130
       -199.08926843
 C         14.8089874169        3.1276321037        0.1023680562
 C         13.6258813440        3.3572948203       -0.5811661736
 C         12.6480794264        2.3834366104       -0.6350117202
 C         12.8397158668        1.1590498120        0.0058683470
 N         11.8505429816        0.1711051463       -0.0405831665
 C         12.2134167500       -1.1756881793       -0.1428346144
 C         13.3092649454       -1.5554321833       -0.9184276354
 C         13.6653656687       -2.8863014770       -1.0149753292
 C         12.9357094387       -3.8583727098       -0.3498994605
 C         11.8445613584       -3.4870215532        0.4189347975
 C         11.4844189085       -2.1581330364        0.5277847124
 C         10.5012683285        0.5316008200        0.0078828598
 C         10.0799116023        1.6042781914        0.7954769571
 C          8.7519677120        1.9693539775        0.8268253874
 C          7.7924400137        1.2735844546        0.0886410938
 C          6.3854238735        1.6741454690        0.1119940567
 C          6.0335743306        3.0252474640        0.1614342418
 C          4.7121497053        3.4198290197        0.1572910525
 C          3.6792460811        2.4833573749        0.1165339642
 N          2.3967562333        2.8193852998        0.1117074307
 C          1.4236219941        1.9214958380        0.0790762046
 C          0.0529449557        2.3106155584        0.0701524117
 C         -0.2711689225        3.6789160493        0.0838707109
 C         -1.5727666145        4.0957136637        0.0694290378
 C         -2.6173688148        3.1552855606        0.0467987011
 C         -4.0154273450        3.5940545789        0.0332799109
 C         -4.4109249481        4.7060898395       -0.7107948914
 C         -5.7263550097        5.1157077276       -0.7362636583
 C         -6.6953377044        4.4314048524       -0.0008772730
 N         -8.0287706235        4.8482978921       -0.0197895697
 C         -8.3306309995        6.2138455951       -0.0710428642
 C         -9.4102236703        6.6725441321       -0.8258122570
 C         -9.7043795043        8.0213624577       -0.8705251315
 C         -8.9278551642        8.9328743460       -0.1736934768
 C         -7.8522070235        8.4828576352        0.5745746201
 C         -7.5541949052        7.1354497633        0.6315549292
 C         -9.0596230746        3.9043285384        0.0154560512
 C         -8.9256092513        2.6840148962       -0.6475673424
 C         -9.9442250300        1.7523206528       -0.6038410507
 C        -11.1129229114        2.0214455422        0.0897917946
 C        -11.2536991085        3.2337625432        0.7454533842
 C        -10.2373625566        4.1684640967        0.7152836383
 C         -6.3052983617        3.3244787351        0.7543327167
 C         -4.9903458577        2.9126025986        0.7627608055
 C         -2.3031317545        1.8077855901        0.0351733350
 C         -0.9829566070        1.3465815769        0.0444067310
 C         -0.6406465061       -0.0567433485        0.0274916942
 C         -1.6032242966       -1.0712287114        0.0085293902
 C         -1.2665253580       -2.4131203568        0.0055694167
 C         -2.3139188787       -3.4387390240       -0.0103140815
 C         -3.4643685461       -3.2753412592       -0.7827037323
 C         -4.4557614364       -4.2320698867       -0.7969702971
 C         -4.3381102821       -5.3858055172       -0.0201012051
 N         -5.3508360821       -6.3478688709       -0.0177393670
 C         -5.0291124804       -7.7057386338        0.0887755154
 C         -5.8348486754       -8.5665488668        0.8342426837
 C         -5.5177903603       -9.9073188946        0.9312612567
 C         -4.3930838664      -10.4102910883        0.2977116719
 C         -3.5866150481       -9.5588166387       -0.4398319662
 C         -3.8997795823       -8.2180280044       -0.5498720616
 C         -6.6905386548       -5.9558765161       -0.1121703882
 C         -7.1345647182       -4.7898552419        0.5119022117
 C         -8.4579135094       -4.4070640186        0.4116462886
 C         -9.3607478188       -5.1799915429       -0.3001978599
 C         -8.9264232484       -6.3414204322       -0.9181355815
 C         -7.6031716351       -6.7275489114       -0.8319618678
 C         -3.1895767848       -5.5560416319        0.7545052268
 C         -2.1945534505       -4.6021520693        0.7497387260
 C          0.0919704591       -2.7716785303        0.0225292078
 C          1.0589012982       -1.8045516532        0.0326846018
 C          0.7216256883       -0.4400883156        0.0359686472
 C          1.7646339048        0.5346836254        0.0531643419
 N          3.0389158699        0.1853788941        0.0483950998
 C          4.0290054282        1.0769906051        0.0761680974
 C          5.3699651428        0.7180447244        0.0694482909
 C          8.2198888859        0.1916176398       -0.6835231471
 C          9.5482045148       -0.1706654014       -0.7317330134
 C         14.0317646995        0.9340584130        0.6949675907
 C         15.0062792223        1.9118773929        0.7368517101
 H         15.5715953713        3.8903200273        0.1402153836
 H         13.4659753744        4.2995273348       -1.0841680539
 H         11.7308527880        2.5603580455       -1.1772592729
 H         13.8726944256       -0.8001033862       -1.4464087018
 H         14.5138818713       -3.1669150278       -1.6213142167
 H         13.2153764562       -4.8976280531       -0.4302504281
 H         11.2735223797       -4.2373089594        0.9456052090
 H         10.6402066194       -1.8692872788        1.1364694180
 H         10.8043901010        2.1435422094        1.3881386523
 H          8.4458487199        2.7889962472        1.4596942004
 H          6.8079746033        3.7772298480        0.1720580173
 H          4.4454147908        4.4651312136        0.1798220019
 H          0.5425754861        4.3877712326        0.1087855398
 H         -1.8055558218        5.1496917956        0.1000987115
 H         -3.6809336048        5.2361015421       -1.3043906292
 H         -6.0175519732        5.9669281314       -1.3340952181
 H        -10.0106142870        5.9643388017       -1.3779263618
 H        -10.5413481608        8.3637167945       -1.4609960669
 H         -9.1595166208        9.9862269626       -0.2130545265
 H         -7.2449099012        9.1853806547        1.1259824421
 H         -6.7213660007        6.7850657702        1.2234917033
 H         -8.0205095304        2.4766785443       -1.1993615484
 H         -9.8276640827        0.8128355007       -1.1239527168
 H        -11.9084146017        1.2926498285        0.1180689016
 H        -12.1590382587        3.4508632956        1.2928229761
 H        -10.3452181302        5.1080974958        1.2369908560
 H         -7.0425953064        2.7963677276        1.3411341643
 H         -4.7057733012        2.0671574045        1.3716929593
 H         -3.1159471330        1.1007203528       -0.0063862318
 H         -2.6501563879       -0.8142239157        0.0211682889
 H         -3.5666770856       -2.3993567399       -1.4062817032
 H         -5.3302580876       -4.0966500685       -1.4164398873
 H         -6.7065864046       -8.1744800057        1.3374618983
 H         -6.1493779660      -10.5620164891        1.5133844064
 H         -4.1469755749      -11.4580112624        0.3781689136
 H         -2.7108231729       -9.9430463851       -0.9416223724
 H         -3.2762110834       -7.5581658204       -1.1351023718
 H         -6.4359068157       -4.1919398291        1.0784929218
 H         -8.7877580528       -3.5024718935        0.9012076937
 H        -10.3948365342       -4.8796694810       -0.3728411194
 H         -9.6212983690       -6.9481107304       -1.4798077700
 H         -7.2650170914       -7.6279993033       -1.3234484026
 H         -3.0896724338       -6.4393071421        1.3682192376
 H         -1.3241346068       -4.7436056339        1.3732065823
 H          0.3678740356       -3.8154486558        0.0022429726
 H          2.1070158248       -2.0629352387        0.0357995982
 H          5.6076610633       -0.3343303655        0.0585131286
 H          7.5029489239       -0.3492527262       -1.2828182101
 H          9.8624177576       -0.9962902523       -1.3534897635
 H         14.1830521051       -0.0089980262        1.1994440825
 H         15.9234479737        1.7255702852        1.2758521087
