  63
        -98.05228027
 C         -6.3986736250        1.1511145122       -1.4010234186
 C         -5.8162027240        0.3625346070       -0.2142335376
 C         -6.9467523101       -0.0983015201        0.7232282288
 C         -5.0992060466       -0.8589975857       -0.7540895935
 C         -5.8078717423       -1.7921886806       -1.4979521070
 C         -5.2030195633       -2.9098524822       -2.0423595115
 C         -3.8453679388       -3.0994715183       -1.8584187283
 C         -3.1175367623       -2.1877897338       -1.1232628443
 C         -3.7326591973       -1.0720299566       -0.5469585735
 N         -2.9760553382       -0.1788362808        0.1958244524
 C         -1.6044963333       -0.4641651776        0.4151364115
 C         -1.2581003594       -1.4987537734        1.3116427940
 C          0.0506412768       -1.7925028974        1.5688297684
 C          1.0715516278       -1.0584144647        0.9330929862
 N          2.3621293264       -1.2788413604        1.2489661491
 C          3.2800973104       -0.5914653483        0.6179180692
 C          4.6738524127       -0.7207030253        1.0560546869
 C          5.1844098006       -1.9555379596        1.4499839367
 C          6.5093200456       -2.0247395444        1.8413957941
 C          7.2691652711       -0.8654018157        1.8377007170
 C          6.6565335781        0.3181508364        1.4507692783
 N          5.3974618160        0.3959273282        1.0702814793
 C          2.9321674849        0.2981081328       -0.4504188500
 C          3.9717047132        0.8684113741       -1.3147603626
 C          3.8807403169        2.1838329183       -1.7634964898
 C          4.8921908477        2.6750683428       -2.5692479269
 C          5.9444423528        1.8383004067       -2.9064753313
 C          5.9265882929        0.5367495474       -2.4252844662
 N          4.9723884394        0.0591524265       -1.6522245977
 N          1.6829094061        0.5906287303       -0.7060162371
 C          0.7238284468       -0.0429219113       -0.0011641756
 C         -0.6305444384        0.2524966088       -0.2347522789
 C         -3.5291659555        0.9677554794        0.7467537304
 C         -2.7364649435        1.8203202846        1.5209645218
 C         -3.2602912116        2.9682707928        2.0768635341
 C         -4.5917115276        3.2855699959        1.8778244161
 C         -5.3837527213        2.4316839634        1.1333365989
 C         -4.8827476564        1.2691326519        0.5637853008
 H         -7.0974969562        0.5411656851       -1.9659105550
 H         -6.9211218741        2.0390579390       -1.0572808100
 H         -5.5960299838        1.4606191978       -2.0672408385
 H         -7.6390402723       -0.7531846134        0.2021885878
 H         -7.5039558344        0.7518070426        1.1058155773
 H         -6.5278516807       -0.6424819374        1.5673750437
 H         -6.8643342981       -1.6464945920       -1.6632103881
 H         -5.7844569330       -3.6175376911       -2.6132072366
 H         -3.3480042314       -3.9546492748       -2.2910460706
 H         -2.0563323136       -2.3362286889       -0.9996374659
 H         -2.0539979265       -2.0460883974        1.7949769754
 H          0.3324985971       -2.5674428502        2.2641135199
 H          4.5465729279       -2.8244036748        1.4348282188
 H          6.9434823838       -2.9665016058        2.1460227784
 H          8.3070757490       -0.8760094528        2.1323354072
 H          7.1991887719        1.2548288759        1.4466172912
 H          3.0381453752        2.7892605718       -1.4709673242
 H          4.8608794148        3.6932276426       -2.9303697317
 H          6.7543587477        2.1820587651       -3.5310279394
 H          6.7149333364       -0.1627961232       -2.6720824182
 H         -0.8832576595        1.0380234600       -0.9297393240
 H         -1.7000214301        1.5769830793        1.6929771951
 H         -2.6262355910        3.6116227968        2.6683755488
 H         -5.0130202287        4.1828458031        2.3046410084
 H         -6.4245706169        2.6823274085        0.9972729535
