  73
       -119.32249289
 O          6.3774503162       -3.0776969279        0.4918686897
 C          5.9660830215       -1.9660414416        0.0866426078
 C          6.8766233953       -0.9436122196       -0.4262971133
 C          8.2553042478       -1.1787429869       -0.4779359990
 C          9.1139239244       -0.2153404201       -0.9673129843
 C          8.6177165243        1.0012901658       -1.4108667397
 C          7.2561171504        1.2548370049       -1.3653275924
 C          6.3830386020        0.2913456903       -0.8747358152
 O          5.0636914223        0.6105406967       -0.8537073275
 C          4.1744108085       -0.3138828749       -0.3845465729
 C          2.8464825051        0.0458592024       -0.3864077767
 C          1.8445154093       -0.8431926384        0.0533377316
 C          0.4521543583       -0.4634357154        0.0583948949
 C          0.0579590055        0.8850381517        0.1241234364
 C         -1.2791479551        1.2436388922        0.1463421729
 N         -1.6304803530        2.5970427236        0.2606080287
 C         -1.1499407824        3.4671508117        1.2162070322
 C         -0.2632795772        3.2317366838        2.2591467545
 C          0.0402454157        4.2888094856        3.0967840240
 C         -0.5291018015        5.5465725675        2.9150235884
 C         -1.4327699673        5.7801806188        1.8931630237
 C         -1.7508855825        4.7360789674        1.0387332023
 C         -2.6369723277        4.6121496841       -0.0885525643
 C         -3.4753139544        5.4980121236       -0.7471193395
 C         -4.1896408736        5.0441325898       -1.8420971876
 C         -4.0605007056        3.7320436473       -2.2897991435
 C         -3.2299245414        2.8320377873       -1.6492029919
 C         -2.5312524811        3.2728327281       -0.5335523682
 C         -2.2831596049        0.2772446961        0.0888129533
 C         -1.9049611611       -1.0634557905        0.0181998710
 N         -2.8912717600       -2.0598295303       -0.0164054808
 C         -2.9401920353       -3.1572970086        0.8162507561
 C         -2.0954634332       -3.5106025283        1.8606047943
 C         -2.3839472808       -4.6685633589        2.5582901759
 C         -3.4889434598       -5.4530872414        2.2376260954
 C         -4.3492012489       -5.0915518502        1.2155201244
 C         -4.0798580578       -3.9345921708        0.5011147175
 C         -4.7447757773       -3.2593569788       -0.5822150287
 C         -5.8843826643       -3.5322091156       -1.3225900721
 C         -6.2389157296       -2.6609375121       -2.3377327195
 C         -5.4625316887       -1.5420224601       -2.6273667070
 C         -4.3219070339       -1.2511152999       -1.9031097131
 C         -3.9755763974       -2.1055389360       -0.8653208574
 C         -0.5694424813       -1.4276441758       -0.0003745543
 C          2.2616600911       -2.1126872033        0.5024465201
 C          3.5793852852       -2.4721136951        0.5207520934
 C          4.5863797044       -1.5850102890        0.0762790034
 H          8.6183958430       -2.1322774143       -0.1285922125
 H         10.1741152906       -0.4149816570       -1.0053412760
 H          9.2873991378        1.7560135670       -1.7932742847
 H          6.8474636327        2.1950084311       -1.7011250683
 H          2.5943143015        1.0177284014       -0.7785810253
 H          0.8036094651        1.6618586408        0.1642179641
 H          0.1674928548        2.2550492750        2.4176170024
 H          0.7304819884        4.1333351394        3.9120869224
 H         -0.2664362273        6.3471029582        3.5897291934
 H         -1.8843753668        6.7518152886        1.7638920142
 H         -3.5630875692        6.5206696709       -0.4137045980
 H         -4.8500081796        5.7180279814       -2.3663381168
 H         -4.6172354652        3.4116240671       -3.1575095468
 H         -3.1161093858        1.8235070986       -2.0144710944
 H         -3.3226128494        0.5557007995        0.1506413198
 H         -1.2494564941       -2.8955714641        2.1267146809
 H         -1.7409934321       -4.9680310844        3.3721506421
 H         -3.6797339110       -6.3518666505        2.8040861602
 H         -5.2135215583       -5.6932512454        0.9797465145
 H         -6.4774496285       -4.4091111494       -1.1128589367
 H         -7.1243709512       -2.8547791350       -2.9237698951
 H         -5.7546786268       -0.8903011922       -3.4368766552
 H         -3.7116607021       -0.3957450650       -2.1466467402
 H         -0.3194041310       -2.4698897375       -0.1140030396
 H          1.5315119088       -2.8114948566        0.8814117374
 H          3.8928021182       -3.4388681712        0.8817756132
