73
 energy: -119.460727814840 gnorm: 0.000048918847 xtb: 6.7.1 (edcfbbe)
O            6.35088674111477       -2.63362112141821       -2.45889252903162
C            6.03576619959448       -1.73347140186679       -1.68663691377305
C            7.01971841916223       -0.89417924979126       -0.99240404333152
C            8.39118925040429       -1.09179767646017       -1.18832468978737
C            9.31551586674446       -0.30833582778818       -0.53756213065463
C            8.88595513098853        0.69525938440894        0.32815381191282
C            7.54168268950160        0.91113731729275        0.53811159527737
C            6.60011057138005        0.11820228531767       -0.12035657298169
O            5.29445767155395        0.38040299964979        0.12863326435472
C            4.34208950879523       -0.36094806771843       -0.48473348548549
C            3.01631470798798       -0.04844975639333       -0.19127046320157
C            1.97897957188675       -0.76381711185563       -0.76837505129020
C            0.58171000436924       -0.43585705611721       -0.44513763377358
C            0.17955374601823        0.89019063651398       -0.32042287766859
C           -1.14118888780730        1.19917201873444       -0.01228878313875
N           -1.52624409255057        2.53929146584144        0.13054171287907
C           -2.60069871896762        3.14971893734181       -0.48702904869186
C           -3.49986762522983        2.63446309788943       -1.40888225609844
C           -4.48004910035276        3.47591477154036       -1.89914839048776
C           -4.56352732561488        4.80638626278892       -1.49364761076994
C           -3.65492099942201        5.33341978547258       -0.59710670690540
C           -2.66128094310207        4.50540849324828       -0.09030063696012
C           -1.56609769808607        4.71464733774360        0.81587885073388
C           -1.11835538459014        5.81513386235490        1.53598207707404
C           -0.01527477692960        5.66746524378597        2.35340031892871
C            0.62942066125071        4.43769446143774        2.47069077563531
C            0.20196456340251        3.32892905454612        1.76507810166741
C           -0.88990590069695        3.47748547901612        0.92163541242958
C           -2.06995692818867        0.18144964538872        0.17797872644828
C           -1.67372539206342       -1.14579127915845        0.04761981571611
N           -2.59511708123494       -2.18049456146697        0.25797503177386
C           -2.40700468377904       -3.26932775802946        1.09018899800468
C           -1.33477389068968       -3.58011913372877        1.91488161334743
C           -1.41666448264516       -4.73126276849607        2.67550588203017
C           -2.53841461940623       -5.55642531210007        2.62935701918047
C           -3.61799695488833       -5.24059525194319        1.82859986940662
C           -3.55908615472830       -4.08816745068564        1.05524653502875
C           -4.48107571137340       -3.45950047210874        0.15040589012989
C           -5.75223915945622       -3.79083431748645       -0.30126865024162
C           -6.36930115278238       -2.95784241922007       -1.21360844973276
C           -5.72671881523862       -1.81682279521940       -1.68936255364728
C           -4.46216809559374       -1.46851824192413       -1.25465811004194
C           -3.84790054661241       -2.28477199805209       -0.31624308250051
C           -0.35435444330408       -1.45036667416127       -0.27068369233103
C            2.28020117217802       -1.80427283155354       -1.65872049695148
C            3.58530392468394       -2.11013392101306       -1.95443168532874
C            4.64295382822727       -1.40034337815757       -1.37385811569852
H            8.68964067491282       -1.87867403134001       -1.86536968022552
H           10.37050256737145       -0.46981756383873       -0.69560180972045
H            9.61074677009129        1.31001628821322        0.83970113137324
H            7.18994068634340        1.68354087961251        1.20386860938436
H            2.82462574836880        0.74870959851664        0.50930001907568
H            0.88303599208497        1.68897998174741       -0.49521018146370
H           -3.42934573935626        1.61201199343885       -1.74575783224776
H           -5.19409333980692        3.09484746085377       -2.61473020303892
H           -5.34537479473692        5.43325092954626       -1.89683521307812
H           -3.70985331810351        6.36916067428207       -0.29679909222420
H           -1.62749616994515        6.76414905920554        1.45808450548952
H            0.35026460563352        6.51163391259242        2.91953379176869
H            1.47989399391984        4.34841968395348        3.13093589530886
H            0.69471820827442        2.37552088672048        1.87998924691939
H           -3.08494420272830        0.41956902242463        0.45661857705204
H           -0.46614961986389       -2.94194628201831        1.97336950095904
H           -0.59306864906715       -4.99545518256048        3.32277334483180
H           -2.56300759699573       -6.44940704600193        3.23658630693307
H           -4.49413829676361       -5.87122025556979        1.80426539929388
H           -6.24268895251552       -4.68505201813566        0.05331548170739
H           -7.35915106566327       -3.19583361597194       -1.57452034316267
H           -6.22564687303590       -1.19324346112476       -2.41682234142579
H           -3.96512891236236       -0.59516578982091       -1.64672193774536
H           -0.05880716258215       -2.48301580039271       -0.36858339778825
H            1.47944417765956       -2.35254517312473       -2.12963151491492
H            3.83621460497850       -2.90413885757949       -2.64226790451093
