73
 energy: -119.375349867482 gnorm: 0.000104063582 xtb: 6.7.1 (edcfbbe)
O            6.36041210604315        3.06516106147697       -0.75971210232446
C            5.95517699170026        1.91928024371128       -0.41688350340345
C            6.88059235623797        0.86034806778123       -0.03181620808048
C            8.26447202740885        1.07888550635135       -0.02593192750053
C            9.13559078261085        0.07440426736040        0.34183752236392
C            8.64757081304933       -1.17075429412582        0.71004332410537
C            7.28171998587723       -1.40954632277084        0.71127337351283
C            6.39881120192950       -0.40335771055776        0.34353427632821
O            5.07186334061368       -0.70849409695472        0.36743044135549
C            4.16765739561772        0.26028479377978        0.01789094919345
C            2.83847651267406       -0.08741483946641        0.06827125660573
C            1.82405459278118        0.83958113813520       -0.25043532274663
C            0.42725934166206        0.47588042627088       -0.17614505992066
C           -0.57166658631722        1.44572381642109        0.01772638303279
C           -1.90978071705628        1.09407064358496        0.09953476654503
N           -2.87428872260433        2.09211410923512        0.30157355740506
C           -3.84950613089162        2.09171198831863        1.27606794883734
C           -4.09630642594728        1.16354135939282        2.28054928103454
C           -5.13956200034921        1.41932953375247        3.15198350517651
C           -5.91371271523236        2.57111771711923        3.03915585100437
C           -5.65497070658591        3.51348489991194        2.05653013196289
C           -4.61556147636971        3.27807221028533        1.17119016924084
C           -4.06216771076021        4.02374230978547        0.06910944158091
C           -4.38375853149860        5.23413518640270       -0.52365530858290
C           -3.63772792714593        5.65699996349747       -1.61235708003359
C           -2.59783461403150        4.88040467209577       -2.11723069993747
C           -2.26033085596304        3.66792204350079       -1.54364218739624
C           -2.98635825618615        3.25295622315820       -0.43358471570998
C           -2.30620225366579       -0.24034466559019        0.00798249245076
C           -1.32521594636660       -1.21356876136808       -0.18399431552480
N           -1.69635804247045       -2.56137310776887       -0.29214596409435
C           -1.11432793668751       -3.60563161259570        0.39571748240576
C           -0.11931065712297       -3.57957379428761        1.36578867817856
C            0.26909272817473       -4.78437323358257        1.92319082681215
C           -0.32292310862032       -5.98529660569216        1.54048651164044
C           -1.33674158487215       -6.01383162319542        0.59622574912742
C           -1.73934641829139       -4.81927022483585        0.02116575716275
C           -2.74635220121580       -4.47474169452300       -0.95013589977154
C           -3.65670555778409       -5.21834673001274       -1.68350287577627
C           -4.49030587380079       -4.55627348606543       -2.57061633644545
C           -4.40864814966290       -3.17662131472029       -2.73890147065710
C           -3.50600183735239       -2.41422582717581       -2.01958429490338
C           -2.68450255112399       -3.06904781236363       -1.10958512446339
C            0.01233750809573       -0.86326892464821       -0.28336973274833
C            2.23334097378325        2.13192566758444       -0.63731897448427
C            3.55281094136748        2.47880404532412       -0.70096773388175
C            4.57324958398185        1.55693230937719       -0.36909684764249
H            8.61925093245427        2.05661487678314       -0.31664740519236
H           10.19884187265366        0.26298825851822        0.34264139254453
H            9.32626091247585       -1.95919253126257        0.99706621414491
H            6.87908818391544       -2.37012040505293        0.99322923920527
H            2.60120611158867       -1.08621415760746        0.39798594183371
H           -0.29688609362409        2.47834394114869        0.16019038510394
H           -3.48751493208323        0.27948396578057        2.38869304344962
H           -5.35439650963568        0.71275046888072        3.93952503748069
H           -6.72110071358586        2.73547517658881        3.73685970915646
H           -6.24591035717551        4.41347636883036        1.98410088564226
H           -5.19977301790432        5.83159097264145       -0.14733113746058
H           -3.87058451913604        6.59905685031750       -2.08570448621484
H           -2.04555747136902        5.22928938701994       -2.97694236288058
H           -1.46655500122627        3.06140902684222       -1.95171564148188
H           -3.34589231976575       -0.51246304390506        0.08520429565442
H            0.32941382966501       -2.65109568044902        1.68345924323338
H            1.04520070870558       -4.79199121086042        2.67383329329586
H            0.00814202504509       -6.90614071109883        1.99672391468840
H           -1.80569363172816       -6.94461129558880        0.31648742199663
H           -3.71057949555310       -6.28997392507574       -1.56843901182216
H           -5.20782996053582       -5.11794131852796       -3.14963113036000
H           -5.06034202566104       -2.69097040088269       -3.44964413001279
H           -3.43545860835643       -1.34894177224550       -2.17417332091299
H            0.73693352434589       -1.63178015215884       -0.49785471880928
H            1.49537556261284        2.86476649782025       -0.92606075557251
H            3.86164243606207        3.46630421925176       -1.01115724560920
