63
 energy: -97.205437518247 gnorm: 0.000079047828 xtb: 6.7.1 (edcfbbe)
N            6.04323072053547        2.80788277231346       -0.70691260758972
C            6.30946712768260        1.70002802080749       -0.51301923089348
C            6.74643842917652        0.39918867466810       -0.25951227118887
C            8.12974900002458        0.20263286855197       -0.29029723381439
C            8.69174070228063       -0.99659028006805        0.07827961284751
C            7.85401421365639       -2.04719005454191        0.51309964811105
C            6.50244963959218       -1.88666558838242        0.55251624681536
C            5.86005080763515       -0.68391713755810        0.13550665020922
C            4.45716903739676       -0.58185705257739        0.08494520473065
C            3.60122716944258       -1.44217205932254        0.85722169088391
C            2.24939393535475       -1.32305572124213        0.83488135903966
C            1.61527484336855       -0.33597077131695        0.03836411404116
N            0.24379389707671       -0.20022145039200        0.03099317743677
C           -0.67722583142513       -1.23165970799805       -0.00264914363379
C           -0.47666829041824       -2.60186143005172       -0.11080502270148
C           -1.58635003364924       -3.42109620286929       -0.15184417492876
C           -2.89271770128981       -2.90980044379689       -0.11133222456666
C           -4.04180288496807       -3.82116644646596       -0.15193673558253
C           -5.17532554184797       -3.50660265766036       -0.90087204800949
C           -6.25518963934951       -4.36778227560246       -0.93985125061060
C           -6.22667733835521       -5.55497514316187       -0.22667130687776
C           -5.10784251059521       -5.87683214873550        0.52398491223306
C           -4.02372399407263       -5.02083417552774        0.55888853889251
C           -3.08792407668440       -1.53107896246733       -0.05204785984105
C           -1.98916606986173       -0.69437424364878       -0.00199745077079
C           -1.84267917105180        0.73649055507094        0.03470648727036
C           -2.74972556347385        1.77872078917175        0.06954971414785
C           -2.27909157676608        3.08937292956641        0.12945825459945
C           -3.22036095933747        4.21469945825932        0.15055796814020
C           -2.94813321982135        5.38246795201198       -0.56157952178343
C           -3.83779407709180        6.43961818268521       -0.54725070065153
C           -5.01136446178224        6.35381544747789        0.18371562630850
C           -5.29097068509222        5.20062796871126        0.89843549588415
C           -4.40654236732296        4.13913783032760        0.87998026538303
C           -0.89673836354082        3.32519285202408        0.18606929455518
C            0.02468331627617        2.29825608831019        0.16017593488197
C           -0.44962230294318        0.99699300148061        0.05196318584149
C            2.43445043412715        0.50547679890498       -0.75648136945301
C            3.78545471714217        0.38062136270804       -0.74336871717975
H            8.75736354875775        1.02819799721156       -0.59709348570776
H            9.76126944593302       -1.13419500233889        0.05031350513924
H            8.29707984824569       -2.98745121642158        0.80672292263267
H            5.88796294243022       -2.72208891385875        0.85076698857614
H            4.04704657179761       -2.15164875617495        1.53584940876754
H            1.64022451828182       -1.93003229121780        1.48868200464475
H            0.51491928764859       -3.02010426679318       -0.18556745369699
H           -1.44785734447121       -4.48692607730945       -0.25165694906303
H           -5.19687850811482       -2.59260785074559       -1.47636899381583
H           -7.12280143231415       -4.11394984700963       -1.53137840532611
H           -7.07199566650847       -6.22622005251808       -0.25608031984081
H           -5.08172911525145       -6.79905195406307        1.08602040679073
H           -3.16237088954078       -5.26953182616997        1.16158047367379
H           -4.08609430037050       -1.12110031394907       -0.02925693186924
H           -3.80992842867395        1.57954416417446        0.03343027595383
H           -2.04407954371664        5.44933574301124       -1.14888744316283
H           -3.61637586076760        7.33474026167165       -1.10994824270423
H           -5.70441058159175        7.18179228649363        0.19686595801623
H           -6.20190105329141        5.13013826228648        1.47497505735456
H           -4.62194300189959        3.25147067577424        1.45685846793671
H           -0.54539657168138        4.34084706846984        0.28460142637694
H            1.07961563674044        2.50759024731057        0.24306930148051
H            1.96048367666441        1.19766220257293       -1.43634723821982
H            4.37125476805364        0.97933905101818       -1.42079731372358
