  63
        -97.20235714
 N          6.0526309744        2.8075083811       -0.6409933899
 C          6.3198183946        1.6951635789       -0.4773477694
 C          6.7496999092        0.3877609166       -0.2433935327
 C          8.1313194491        0.1808255886       -0.2790806704
 C          8.6827674589       -1.0316287617        0.0619810366
 C          7.8375565444       -2.0834902458        0.4706932651
 C          6.4857534719       -1.9104732430        0.5151793209
 C          5.8577367708       -0.6928556177        0.1310208352
 C          4.4517794779       -0.5753540654        0.0926645088
 C          3.5977533565       -1.4279759821        0.8695893007
 C          2.2450684383       -1.3070053869        0.8479100051
 C          1.6127089501       -0.3207592072        0.0496807724
 N          0.2430753023       -0.1871216447        0.0381445317
 C         -0.6752014776       -1.2215519166        0.0087682476
 C         -0.4698782801       -2.5911982253       -0.0914259968
 C         -1.5763672276       -3.4152551019       -0.1334983424
 C         -2.8852628532       -2.9068072665       -0.1031013963
 C         -4.0296811241       -3.8223830036       -0.1488619392
 C         -5.1579751244       -3.5172192838       -0.9101948696
 C         -6.2317499096       -4.3853738546       -0.9572166844
 C         -6.2035833422       -5.5696103269       -0.2387398669
 C         -5.0907519861       -5.8815319031        0.5252730886
 C         -4.0118867117       -5.0195234308        0.5670856406
 C         -3.0854777558       -1.5282564248       -0.0509763933
 C         -1.9901306539       -0.6867227394        0.0014742905
 C         -1.8476196253        0.7434234921        0.0308228656
 C         -2.7564207404        1.7846900568        0.0623194077
 C         -2.2881237798        3.0966068731        0.1173964908
 C         -3.2303958389        4.2201302087        0.1408726791
 C         -2.9671376180        5.3840247517       -0.5814792517
 C         -3.8558616518        6.4416806367       -0.5604773232
 C         -5.0183138594        6.3612718957        0.1890050311
 C         -5.2889470675        5.2119528204        0.9136860422
 C         -4.4067278343        4.1489248362        0.8870053333
 C         -0.9056764435        3.3370722528        0.1712777036
 C          0.0176091735        2.3110967388        0.1510098203
 C         -0.4535466981        1.0086201689        0.0490866978
 C          2.4340275973        0.5210743533       -0.7419181405
 C          3.7856951407        0.3916997586       -0.7293366848
 H          8.7658272542        1.0068985076       -0.5695664890
 H          9.7511062115       -1.1777075246        0.0289100672
 H          8.2709770368       -3.0351543529        0.7408379926
 H          5.8624534064       -2.7462323599        0.7940015813
 H          4.0438846633       -2.1354812419        1.5504003028
 H          1.6355889886       -1.9092797277        1.5057689443
 H          0.5232978766       -3.0065906562       -0.1607910390
 H         -1.4341268016       -4.4808562223       -0.2285873824
 H         -5.1788090365       -2.6057235361       -1.4896825011
 H         -7.0944532560       -4.1396853572       -1.5592684882
 H         -7.0443293509       -6.2462673234       -0.2744886742
 H         -5.0653110736       -6.8010196501        1.0918140748
 H         -3.1552124893       -5.2603949855        1.1795166867
 H         -4.0854158859       -1.1221402519       -0.0354852506
 H         -3.8164853095        1.5841736689        0.0277038479
 H         -2.0709366120        5.4465912962       -1.1812005258
 H         -3.6421162696        7.3335388085       -1.1312691403
 H         -5.7097874717        7.1904312875        0.2086483899
 H         -6.1914630340        5.1457275977        1.5037994065
 H         -4.6151443428        3.2633336715        1.4696391076
 H         -0.5572445497        4.3539810539        0.2656402538
 H          1.0718330942        2.5233494177        0.2351841275
 H          1.9624470563        1.2154142373       -1.4211834446
 H          4.3735667398        0.9928613960       -1.4030832113
