63
 energy: -97.298611813888 gnorm: 0.000024765044 xtb: 6.7.1 (edcfbbe)
N            5.77757259323012        2.80815511608509        0.03485649016012
C            6.17301277670468        1.73206581090961       -0.00230412256722
C            6.71784735976698        0.42716468003186       -0.02186709855593
C            8.10662500722659        0.29174267727317       -0.01533713040836
C            8.67831268652649       -0.96458421289303        0.01824885895131
C            7.86824012470438       -2.09003168013976        0.05483886910974
C            6.49154779312244       -1.96002949664023        0.05135595728045
C            5.88972894676754       -0.70632676702939        0.00508722645486
C            4.42691585799791       -0.57654735484933       -0.01155035986266
C            3.64555781820177       -1.31895317268155        0.87182227697157
C            2.27204269456965       -1.19159191440511        0.87773597642178
C            1.64573131883534       -0.32882355220051       -0.01900857443682
N            0.25456348339289       -0.19396391354327       -0.01562046605979
C           -0.66125291492412       -1.22802058421389       -0.02081324195793
C           -0.45530705393844       -2.59864185704075       -0.08438549951350
C           -1.56337789370002       -3.42085106174880       -0.09994013802760
C           -2.86893285499014       -2.91259773481031       -0.07078697922159
C           -4.01660093257566       -3.83201823403502       -0.08501230897733
C           -5.13778246616825       -3.55754906047833       -0.86498172373915
C           -6.21620479776079       -4.42212856892943       -0.87825419688764
C           -6.19571039602827       -5.57387293236805       -0.10966641876724
C           -5.08771344548349       -5.85599905838542        0.67154417534183
C           -4.00678984768103       -4.99444800247640        0.68266531956455
C           -3.06905553496739       -1.53838343197813       -0.04013851289008
C           -1.97014528802963       -0.69458780036013       -0.01638554843059
C           -1.82777513798146        0.73558741104171        0.00280753969681
C           -2.73923769341889        1.77911037533873        0.03637851564516
C           -2.27169606640808        3.08658409010199        0.06774600968805
C           -3.21560671508628        4.21402554186480        0.09531798915884
C           -2.98151858022987        5.35714407082538       -0.66571792958799
C           -3.87118334737784        6.41482284218626       -0.64109355930606
C           -5.00808454304534        6.35117638727511        0.14693841242024
C           -5.25048606126826        5.22063912490973        0.90899342819520
C           -4.36383563515524        4.16053577364189        0.88239082481495
C           -0.89111529469373        3.32752825805727        0.08613569399625
C            0.03373546457189        2.30386214702863        0.05951771316027
C           -0.44001759806599        1.00128221027952       -0.00320908605074
C            2.41979638623641        0.39972629624419       -0.91926770750297
C            3.79396683166989        0.28097443923937       -0.90902585290600
H            8.72275262186856        1.17891198040349       -0.03223182343926
H            9.75269756606221       -1.06787905342136        0.01957943145452
H            8.31359843289538       -3.07335765263818        0.08330440425461
H            5.86601767048238       -2.84050929629414        0.06434581948813
H            4.12429726094280       -1.97475679464474        1.58450299365136
H            1.67748244195058       -1.74217717489152        1.59106692689637
H            0.53961016561133       -3.01486605642516       -0.13580174007728
H           -1.42284982714665       -4.48991572219100       -0.16263134035170
H           -5.15285451961474       -2.66949477956769       -1.48026003931380
H           -7.07624448653349       -4.19842462731531       -1.49301333010908
H           -7.03921118512360       -6.24841248750258       -0.11940456652986
H           -5.06746575317498       -6.75087062507428        1.27695382624574
H           -3.15267618538721       -5.21189804321266        1.30784112504641
H           -4.06835560682815       -1.13063333550326       -0.01729471619980
H           -3.79939674412374        1.57588330455762        0.02136993941431
H           -2.10506350665934        5.40668723051677       -1.29562143511879
H           -3.67837000225905        7.29267720186740       -1.24094662566648
H           -5.70173086824485        7.17886529883819        0.16740561117777
H           -6.13366838901238        5.16659009093705        1.52930920584423
H           -4.54972220642486        3.28883103450002        1.49319302697178
H           -0.54166634207078        4.34730744936483        0.14936316806155
H            1.09123860648403        2.51639884210409        0.10229976304254
H            1.93676785616116        1.04672941124727       -1.63536377128627
H            4.38055668556302        0.83960836922138       -1.62299406966878
