  95
       -148.71692289
 C         -1.1403655823        3.6692245175        1.3830201154
 C         -1.7089033516        2.5067936945        1.9254812815
 C         -2.6376584504        1.7950327247        1.2198031116
 C         -3.0314646788        2.2086262750       -0.0697379579
 C         -3.9496974379        1.4740351641       -0.8676030371
 N         -4.4153431593        0.2235702420       -0.4167523307
 C         -3.6154558261       -0.8846284617       -0.2015234539
 C         -2.1737368192       -0.8821034614       -0.3123843736
 C         -1.4736054666       -0.1070735473       -1.2422135566
 C         -0.1016114240       -0.0444977126       -1.2043064976
 C          0.6372270668       -0.7748669580       -0.2618573072
 C          2.0794947283       -0.6400774801       -0.1823711035
 C          2.9146625852       -1.8006041064       -0.2169079525
 C          2.3950104307       -3.0822857061       -0.4219360365
 C          3.2085133145       -4.2108475897       -0.3841520061
 C          4.5593994413       -4.0795307377       -0.1361363201
 C          5.1159128793       -2.8136490994        0.0074349757
 C          4.3277328965       -1.6612649028       -0.0800929792
 C          4.8914519807       -0.3549862921       -0.0091648055
 N          6.2789259537       -0.2148514923        0.0797444902
 C          7.1987814539       -0.6529277819       -0.8525819169
 C          6.9797505299       -1.2563613773       -2.0834423257
 C          8.0847871783       -1.5677999785       -2.8514864344
 C          9.3770383370       -1.2813330600       -2.4157333327
 C          9.5988340627       -0.6619950122       -1.2004089977
 C          8.5047218930       -0.3400385036       -0.4100352891
 C          8.3571454974        0.3101365223        0.8640576517
 C          9.2570152537        0.8165041467        1.7910434240
 C          8.7636214928        1.3716773647        2.9563299116
 C          7.3938587055        1.4139145797        3.2085719988
 C          6.4784079648        0.9143097597        2.3026806058
 C          6.9683481490        0.3736435997        1.1218789220
 C          4.0740762680        0.8112493297       -0.0236908136
 C          4.6231273703        2.0981601982       -0.0288321983
 C          3.8137203364        3.2269432424        0.0306024509
 C          2.4440215800        3.0839335689        0.1119758950
 C          1.8713921775        1.8161819831        0.0661015730
 C          2.6552734279        0.6650689806       -0.0607197599
 C         -0.0692188789       -1.6220359997        0.6056860614
 C         -1.4418315282       -1.6692500192        0.5846350678
 N         -4.3159894745       -1.9270680634        0.1773171635
 C         -5.6093905014       -1.5222554682        0.2044717164
 C         -6.7602483908       -2.2986885291        0.5142603154
 C         -6.6523684544       -3.6570871452        0.8300175100
 C         -7.7766928285       -4.3979895206        1.0960453367
 C         -9.0270279281       -3.7854267494        1.0443232154
 C         -9.1439214285       -2.4488950066        0.7400146371
 C         -8.0183438095       -1.6554225077        0.4714805746
 C         -8.1045802010       -0.2335141849        0.1842005890
 C         -9.3286149219        0.4489201767        0.2119179675
 C         -9.4149074261        1.8030029882       -0.0111145460
 C         -8.2639258613        2.5452948849       -0.2558032995
 C         -7.0455314406        1.9144782477       -0.3010902352
 C         -6.9394696743        0.5291049011       -0.1081905213
 C         -5.7037570640       -0.1738731957       -0.1486186368
 C         -4.3348790202        1.9366431358       -2.1037063366
 C         -3.8181064413        3.1383965047       -2.6026942935
 C         -2.9007847359        3.8481184729       -1.8786733385
 C         -2.4837711826        3.4035256495       -0.6067250958
 C         -1.5279611162        4.1132683553        0.1505785841
 H         -0.4020822099        4.2123839839        1.9542074834
 H         -1.4066735861        2.1770677597        2.9081281118
 H         -3.0780247159        0.9079862438        1.6500658819
 H         -2.0038833398        0.4340266905       -2.0108883630
 H          0.4266185476        0.5508749846       -1.9349222094
 H          1.3416884202       -3.2031089118       -0.6210183224
 H          2.7726860392       -5.1861126023       -0.5409116670
 H          5.1941397167       -4.9505302263       -0.0729515215
 H          6.1769756686       -2.7253227805        0.1846029791
 H          5.9797006861       -1.4768577468       -2.4244910639
 H          7.9440735857       -2.0418307024       -3.8114967409
 H         10.2154146580       -1.5433226908       -3.0437768940
 H         10.5999033576       -0.4273396032       -0.8713204680
 H         10.3193086145        0.7709304762        1.6041417064
 H          9.4473974609        1.7741968196        3.6887227336
 H          7.0403182913        1.8447182505        4.1334908252
 H          5.4180941897        0.9452375469        2.5021865493
 H          5.6942413287        2.2231788668       -0.0751863875
 H          4.2662712716        4.2072705472        0.0340484364
 H          1.8050506287        3.9496165907        0.2008822507
 H          0.7980046621        1.7289530546        0.1372776449
 H          0.4773211614       -2.1927969316        1.3421804366
 H         -1.9845175511       -2.2892470045        1.2813954083
 H         -5.6657423131       -4.0932923243        0.8486748518
 H         -7.6987980604       -5.4473699037        1.3390575463
 H         -9.9159587473       -4.3658387027        1.2456055020
 H        -10.1330063613       -2.0200666337        0.7096658351
 H        -10.2381623005       -0.0897994267        0.4228463072
 H        -10.3768168354        2.2933617649        0.0179823426
 H         -8.3268537267        3.6130407705       -0.4050111220
 H         -6.1534576376        2.4961871700       -0.4715386747
 H         -5.0347782773        1.3615344469       -2.6927448154
 H         -4.1382540756        3.4840063715       -3.5739918188
 H         -2.4795567415        4.7617225754       -2.2719227057
 H         -1.1077946747        5.0165597824       -0.2682418697
