95
 energy: -148.783162284870 gnorm: 0.000052980547 xtb: 6.7.1 (edcfbbe)
C           -1.28646492717000        3.30969407172326        2.02981520997596
C           -1.87372851196963        2.08377259068485        2.37768729098940
C           -2.76462318281214        1.47919772643201        1.53650075758039
C           -3.10096469376107        2.07072779244589        0.30098938524241
C           -3.98934173520337        1.46302375426438       -0.62583015936327
N           -4.46946847646908        0.16350590383303       -0.37293899832068
C           -3.67107027062004       -0.95936925413113       -0.29340876319375
C           -2.21819093143215       -0.91606500580559       -0.36320591767183
C           -1.53549715090874       -0.09245539704509       -1.25552401846675
C           -0.15817977101589       -0.01678166747120       -1.21672908666087
C            0.57012698201055       -0.76695728927602       -0.29839884576209
C            2.03854347035782       -0.63387902921295       -0.22176932189513
C            2.86202963401718       -1.70120465621246       -0.60831713980642
C            2.32608628160730       -2.91463911277616       -1.11441395214387
C            3.13768999187546       -3.93225441324314       -1.51186698022822
C            4.53838064932114       -3.79508705063233       -1.44390865991836
C            5.09452540770992       -2.64521942599575       -0.97460964950544
C            4.28314430917797       -1.56717815312662       -0.53480950513027
C            4.83491022809897       -0.36966944642182       -0.05740117130098
N            6.23461905828908       -0.23712379126026        0.02452376539076
C            7.00997403129559        0.60489325670264       -0.74278641077490
C            6.62344755255816        1.47685410358904       -1.75019791682272
C            7.61232111880235        2.20664432299695       -2.38015553475817
C            8.95337004030988        2.07265734770940       -2.02429181872031
C            9.34306839486582        1.19875393398583       -1.02920927500238
C            8.36799526082290        0.45328196888417       -0.37894459649033
C            8.40065329310381       -0.53014276830830        0.66728366418349
C            9.41806493194639       -1.09147745020944        1.42830761625100
C            9.08764823485364       -2.03231294722312        2.38296486407132
C            7.76282006861276       -2.41300664210523        2.59028294708201
C            6.73259613479907       -1.86983423111854        1.84805177171181
C            7.06162868688331       -0.93149845193266        0.88065050982117
C            4.01759502249835        0.69985492889021        0.33622229488465
C            4.55896689847086        1.90719888307179        0.84913092367674
C            3.74958701291571        2.93442689098162        1.22497607519198
C            2.35006828469846        2.80982531217391        1.12360823334545
C            1.79126788315851        1.65918085624553        0.65885770485508
C            2.59735419806615        0.56678951644069        0.24227901727588
C           -0.11051564202686       -1.63386299204995        0.55258215166456
C           -1.48718491483337       -1.70970878581099        0.51975991348962
N           -4.36884957061427       -2.04818394397046       -0.10061004836303
C           -5.67060073221106       -1.65650863437650       -0.06015728095571
C           -6.82486848099343       -2.47408843395923        0.09029638266143
C           -6.71817967083296       -3.86383533862421        0.20826026178635
C           -7.84543237984411       -4.63819204652424        0.32154100367230
C           -9.09822518583508       -4.02798607612979        0.31424620317085
C           -9.21440402998515       -2.66207280182072        0.20421345700874
C           -8.08595028001294       -1.83495068781370        0.09528166041174
C           -8.17441935726351       -0.38713749066929        0.01325436499218
C           -9.40467363684396        0.28099460318355        0.09134212112694
C           -9.49317515641917        1.65253819610774        0.06182721319826
C           -8.34002370686872        2.42553234851832       -0.02951881164425
C           -7.11559557573235        1.81089333705064       -0.11779556494638
C           -7.00659040394348        0.41300569258181       -0.12100785040892
C           -5.76417721993286       -0.27440241368486       -0.21449295994487
C           -4.32650745528656        2.09788430070468       -1.79752845043744
C           -3.78695898969298        3.35322774519051       -2.10288842731367
C           -2.89617679664748        3.94684285909022       -1.25230591829995
C           -2.53171459469342        3.32606283063831       -0.03955067682723
C           -1.61415796112480        3.92036686506247        0.85259963597995
H           -0.58371017556769        3.76909961231622        2.70907350440946
H           -1.61828336818430        1.62145676564668        3.31928065960855
H           -3.22369313201596        0.54363943934015        1.81902933495886
H           -2.07671960382501        0.48525961299286       -1.98930063738208
H            0.36518555706585        0.63059503024926       -1.90556618164037
H            1.25350812584948       -3.01349173827904       -1.18675167037023
H            2.71418099274818       -4.84921947804603       -1.89404932148677
H            5.16722654382149       -4.60723101520432       -1.77709769362009
H            6.16815932049306       -2.53850518948174       -0.93962344561290
H            5.58478069464084        1.58017304983542       -2.02736578770367
H            7.34137985955664        2.89553554595564       -3.16672121220505
H            9.69644873356626        2.66208270593549       -2.54075479450555
H           10.38313442148867        1.09217507822762       -0.75967259347128
H           10.44435439165787       -0.79383649051845        1.27367921477180
H            9.86459569931085       -2.48151143487805        2.98369694705606
H            7.53761823493336       -3.14819294576912        3.34881435819777
H            5.70633789546850       -2.16449336639024        2.00999341425244
H            5.63027320964264        2.00006612077652        0.94352964017200
H            4.17448880192589        3.84844604306850        1.61263074768646
H            1.72131862949580        3.63307585939060        1.42810570546309
H            0.71691177471066        1.56271096559797        0.60632164948656
H            0.44932001245026       -2.23263316009783        1.25646920264233
H           -2.02029796832161       -2.36965919658755        1.18652523995698
H           -5.72962279245372       -4.29605321061244        0.19992285150231
H           -7.76818080804505       -5.71172041477149        0.41122465761097
H           -9.98909809519065       -4.63398149777757        0.39620416714165
H          -10.20489864924667       -2.23541369499981        0.20058798662240
H          -10.31717928198809       -0.28495140566046        0.18697777007657
H          -10.45938744688427        2.13130435865379        0.12391452525725
H           -8.40621716944984        3.50351513573214       -0.02687807143289
H           -6.22197752498222        2.41296863998372       -0.16916747679341
H           -5.00714309516426        1.61811049958994       -2.48615474192198
H           -4.06919798727156        3.83485386312686       -3.02691498915869
H           -2.45835792264689        4.90351860193406       -1.49665380542682
H           -1.17782854568205        4.87176620045193        0.58392015624119
