60
 energy: -95.741859873161 gnorm: 0.000057673309 xtb: 6.7.1 (edcfbbe)
C            1.32470142886819        1.76659050353699       -1.93684300520563
C            0.27784178375934        1.08186267273159       -1.36900400835151
C            0.50675693916637        0.04563046020580       -0.43265023939059
C           -0.60890975881828       -0.61873317327947        0.15894076128544
C           -0.51197618432917       -1.79602120348317        0.92842066882086
N           -1.55024779437919       -2.37922664796217        1.44781672235777
C           -2.78088365684187       -1.86115515259698        1.25224728311769
C           -2.92513008692132       -0.75627403625096        0.41052018747984
N           -4.17822508735502       -0.21457289949844        0.18540620163235
C           -5.36979062140161       -0.90713332149144        0.03765609001556
C           -5.59305919022214       -2.26937438199216       -0.10182089521419
C           -6.89916537473806       -2.69706817163872       -0.26705004710180
C           -7.95881847271139       -1.79580171117763       -0.30641400853362
C           -7.73851913720023       -0.43383142690996       -0.20249768180231
C           -6.43773473178602        0.01704239651807       -0.03487895740458
C           -5.85489404724619        1.33049332224256        0.07090974475276
C           -6.38227272046338        2.61338285477194        0.06158361936114
C           -5.51540703934560        3.68553208426492        0.18070990992220
C           -4.14291906400800        3.48963673238481        0.30806485511119
C           -3.59563005323312        2.21872807752696        0.32504227395837
C           -4.46059598375539        1.14371342549873        0.19657112470515
N           -1.87487452325698       -0.15922047185923       -0.11469105022699
C            1.84097299890895       -0.24381293008733       -0.09316917515447
C            2.88474685045293        0.45280971080187       -0.67215145502439
N            4.20946166388267        0.14619861110434       -0.31483906876967
C            4.78084237895254       -1.10760800514149       -0.33133812294363
C            4.23822601788858       -2.32004002775303       -0.73727356543320
C            5.04400052810693       -3.44138005220833       -0.67259358910026
C            6.36084157261306       -3.36492460604175       -0.22369883745166
C            6.91390475941305       -2.15683862512302        0.16030277662107
C            6.12468355495784       -1.01707456430013        0.10450351786645
C            6.36236334252518        0.37017998955327        0.40110135497481
C            7.46096103640395        1.07351061860307        0.87417371717948
C            7.33885624705495        2.43671349875458        1.07300876824546
C            6.13743670591802        3.09476311795093        0.81837170993851
C            5.02901076355213        2.41580588167405        0.34805875782011
C            5.15209135157320        1.05040734737221        0.12555664879715
C            2.63966297601567        1.46244460012385       -1.60783399173416
H            1.12554592389202        2.54732551667970       -2.65684286734809
H           -0.74319044521906        1.31889212928081       -1.62444054142221
H            0.44050917413143       -2.28718274836590        1.06081821609983
H           -3.60022143435577       -2.26924056805250        1.81725670174618
H           -4.77722767539569       -2.97583159078155       -0.09739279730562
H           -7.09672837625604       -3.75322431342128       -0.37332270428166
H           -8.96425194609320       -2.16749153354158       -0.43447905518823
H           -8.55781787820408        0.26631999207754       -0.25657115417290
H           -7.44560158362818        2.76873399537396       -0.03743595740721
H           -5.90685406313350        4.69184864785299        0.17722386271693
H           -3.49109628594593        4.34536811060591        0.40123026384334
H           -2.53317414835261        2.06296387393652        0.42913527079838
H            2.06747501102528       -0.99228092483217        0.65078727485600
H            3.22401682211556       -2.38243334624870       -1.10215469556313
H            4.64480515175034       -4.39680248188970       -0.98004998575675
H            6.95822004583991       -4.26385307068069       -0.18515511604134
H            7.93934412187166       -2.09792276686935        0.49277671338805
H            8.38891913569654        0.56384393011113        1.08558675682579
H            8.18290256143668        3.00231979180342        1.43911780251406
H            6.06918228902339        4.15792376134223        0.99636610288677
H            4.09616953598243        2.92795578928234        0.16791125937168
H            3.46495507829299        1.97615788555687       -2.07512993896444
