60
 energy: -95.819935158534 gnorm: 0.000041198577 xtb: 6.7.1 (edcfbbe)
C            1.29642700232217        2.53283801372358        0.78643153553033
C            0.23506761632769        1.64898241189304        0.83937553912019
C            0.44721597943785        0.28466667235955        0.64051987686402
C           -0.69150240523229       -0.63750617354628        0.70485377705853
C           -0.57269646795220       -1.98999287670872        1.03483482582936
N           -1.61700245579082       -2.80534974197526        1.00237768589694
C           -2.79539922772282       -2.29848661413698        0.69989104424498
C           -2.95222761561376       -0.92318896171234        0.46095668751125
N           -4.18052208126682       -0.35349959004308        0.18954222900607
C           -5.41501793887355       -0.75690318859596        0.68839172967503
C           -5.72055855146459       -1.67537915418524        1.68192662334940
C           -7.05232393927880       -1.85908024717012        2.01105610148404
C           -8.06348995675091       -1.13914909041340        1.38213178750335
C           -7.76329091549021       -0.19085633037896        0.42344970829625
C           -6.43346829806115        0.01041899254047        0.08014090609698
C           -5.78267172947359        0.92782764270038       -0.81727745819985
C           -6.25722292433046        1.90465803018997       -1.68267257586224
C           -5.34455466397623        2.62980770122279       -2.42399553185703
C           -3.97860198080912        2.38477211543902       -2.31273063562107
C           -3.48475404863076        1.41610505305030       -1.45712377965036
C           -4.39643224123104        0.69231291577577       -0.70592425888274
N           -1.89291511827272       -0.12281099498203        0.44165816688515
C            1.73493387763382       -0.17598935515742        0.38305766892806
C            2.79793017850400        0.71738011462853        0.31531941444768
N            4.08863341202744        0.24602682227929        0.03558972174314
C            4.43767629324116       -0.57738084899382       -1.01777528275356
C            3.65236458964182       -1.08094090236871       -2.04547246889106
C            4.26565949149023       -1.87032040640490       -2.99993752061031
C            5.62988784211619       -2.14916477394190       -2.94639381010247
C            6.42097502871283       -1.63143937982051       -1.94002996298335
C            5.82704632880882       -0.83603906974235       -0.96822106697475
C            6.33225169072368       -0.13579356337682        0.18005220302963
C            7.59314673712249       -0.02384713350086        0.75242049072983
C            7.73456539940988        0.73170529288942        1.89946104530372
C            6.63583385608300        1.35843735874215        2.48424451593983
C            5.37166217084869        1.26095141387950        1.93415727963008
C            5.22742730599496        0.52225693841738        0.76807803014200
C            2.57572249905891        2.07725548158459        0.52071791215268
H            1.12585386425452        3.58750785232038        0.94164741892757
H           -0.76707967245567        1.99583423055667        1.03602178989717
H            0.36547035681370       -2.43898795133275        1.32549463986605
H           -3.61344777079125       -2.99829800823900        0.61482274568459
H           -4.95214706702859       -2.22177559464651        2.20697884566626
H           -7.30866802905005       -2.57384794975908        2.77891496327033
H           -9.09130830563592       -1.31464491750433        1.66230589634348
H           -8.54204151293916        0.39089234511341       -0.04542492236126
H           -7.31712895260088        2.08794810535239       -1.77191514247024
H           -5.69136924043072        3.39661550626926       -3.10072458013899
H           -3.28644157734640        2.96430447811578       -2.90554707133674
H           -2.42602414742232        1.23371328142559       -1.37007636165686
H            1.92018834691163       -1.22682294038882        0.22162023517525
H            2.59767422841257       -0.85760886437893       -2.10729742373477
H            3.67413941199629       -2.27701172594831       -3.80739761396258
H            6.07155862782187       -2.77242457496116       -3.71006110091635
H            7.48095977232594       -1.83458969704264       -1.90770798742004
H            8.44165605936218       -0.52230547732853        0.30799918583001
H            8.70687120229548        0.83377151620769        2.35878661712823
H            6.77465058840665        1.93065367973166        3.39000119288953
H            4.52436831368101        1.73589380287301        2.40539756677372
H            3.40249076413504        2.76790032939672        0.45307695253330
