45
 energy: -70.420373287452 gnorm: 0.000032140674 xtb: 6.7.1 (edcfbbe)
C            7.54059729940610        1.71758236307421        0.35227075301430
O            7.05849326074848        0.52660717849919       -0.21987472738183
C            5.71800664643411        0.29954346788275       -0.21553769077444
C            5.31878666517671       -0.91548805567259       -0.81492383589782
C            4.00123788535941       -1.26153694988568       -0.87460758649176
C            3.00318057515064       -0.41757646773202       -0.33528871755751
C            1.64256765269663       -0.75664231225346       -0.37437255396512
C            0.68186998074395        0.08421074230768        0.16638870335818
C           -0.72866630396752       -0.20555475075623        0.13811114728356
N           -1.64529923087049        0.73057422793849        0.04070432215597
C           -2.86775548862974        0.11042296506872       -0.01135915060988
C           -4.05384251865266        0.88630036837863       -0.09327443797073
C           -3.92955547821870        2.26848982871957       -0.36157286107836
C           -5.04000525522309        3.06982367440508       -0.46708771980238
C           -6.31293767315984        2.53404995820508       -0.29774804538373
C           -6.45317047539590        1.18190119905216       -0.00635687405280
C           -5.34979951021093        0.36626694417619        0.09644445213861
C           -2.66382317904395       -1.31600004389675        0.04584369401009
C           -3.46962635783598       -2.42683663920677       -0.03691920693604
C           -2.87513848817511       -3.72434755187386        0.10444190227243
C           -1.53284085903573       -3.83177943593403        0.35651487368519
C           -0.72294360714896       -2.69706480756718        0.41159729368360
N           -1.29633515329646       -1.46824890235882        0.18107965079473
C            1.08571834343734        1.32215016628051        0.71992739404253
C            2.40313135186485        1.66648303295458        0.77413973013315
C            3.40355276027728        0.80800596303665        0.26113107885274
C            4.76694778059382        1.14582405831314        0.31180067441707
H            7.29314351111747        1.77995561843679        1.41691999846179
H            8.62262083763705        1.68525904668559        0.23527548374863
H            7.14660218617151        2.59868516509563       -0.16439464225470
H            6.08967283219936       -1.55166072618727       -1.22033366729174
H            3.70371382042731       -2.19289294209552       -1.33412595100703
H            1.35678314336157       -1.66360942906450       -0.88703291062264
H           -2.93593959938021        2.66616216830104       -0.49252094781145
H           -4.92643884653793        4.12259292647519       -0.68256242240951
H           -7.18548299616451        3.16439757107151       -0.38138808368381
H           -7.43971627969216        0.76799755261346        0.14749204951702
H           -5.47953019691533       -0.66942629681934        0.36245851035786
H           -4.52479549103597       -2.34494802052654       -0.21853007711678
H           -3.50288111828472       -4.59714608520407        0.03747723998138
H           -1.07269513684158       -4.79416063412518        0.51694941093364
H            0.31445728340752       -2.72115744963487        0.68984790671659
H            0.31753261402763        1.97397462686155        1.10468991115640
H            2.70289462134812        2.60770290387401        1.21212774824398
H            5.03934149108514        2.08361588306504        0.77094233998166
