45
 energy: -70.497828713885 gnorm: 0.000049521535 xtb: 6.7.1 (edcfbbe)
C            7.92936005301432        0.51210475329015       -0.35254383989147
O            6.85948984186207        1.20056332515563        0.24631217316762
C            5.59088856828601        0.73507351417970        0.06491572829780
C            5.26819700652614       -0.41310660656512       -0.68473003973080
C            3.96487641646217       -0.80798194739326       -0.81095750008514
C            2.91690946646217       -0.09015152749844       -0.20327003504811
C            1.57115553766772       -0.48720788891374       -0.32012164741616
C            0.56670529190094        0.22726571609918        0.29200581285788
C           -0.83515879702059       -0.13663697426380        0.19492152976396
N           -1.80837133441363        0.74874739726257        0.11363903363151
C           -2.97926381406213        0.08457013152301        0.01824628980324
C           -4.23540366294652        0.80446529549831       -0.09740474912476
C           -4.22661844594430        2.09074912785351       -0.63887564869269
C           -5.39949633835467        2.80772417926488       -0.76388814722049
C           -6.60127265655934        2.25625472113837       -0.34855074125407
C           -6.61731033934981        0.98868064144894        0.20890386327895
C           -5.44531474217038        0.26731007143318        0.33930651607301
C           -2.72597844805248       -1.29187210511623        0.03711055195398
C           -3.49129578987304       -2.46419993230586       -0.08666026427436
C           -2.88312702850855       -3.68033433574900        0.00444200209952
C           -1.48818899412916       -3.75485176301448        0.24701326023932
C           -0.74349238670850       -2.62539296439851        0.32023248325305
N           -1.33715863940823       -1.40872166535032        0.16550982323641
C            0.89325889984379        1.40274318368498        1.01073411546800
C            2.18680847644644        1.80862114832248        1.13621239520867
C            3.24034147358556        1.07197827659002        0.54676856136712
C            4.58279094480600        1.45863602230073        0.66609283495977
H            7.84089952124138        0.49758834129293       -1.44392703640066
H            8.82561685153440        1.06452898555084       -0.07414540402302
H            8.00995218857683       -0.51431960564673        0.02062413397925
H            6.04448790887303       -0.98874648920566       -1.16428018682867
H            3.72615144095896       -1.69083785719252       -1.38752465846698
H            1.34640288895139       -1.34584736331519       -0.93761095799770
H           -3.28298629669208        2.50763171704063       -0.95499839552415
H           -5.38037262040643        3.80131455087874       -1.18820995092608
H           -7.52017055464923        2.81513975848109       -0.44985547771761
H           -7.54940900924334        0.56194148564405        0.55150657732157
H           -5.46623273761512       -0.70376458408189        0.81051954348259
H           -4.55096222161039       -2.37849830678042       -0.26283119914028
H           -3.45183049839492       -4.59142429754498       -0.09149353607194
H           -1.01550168365508       -4.71563197764507        0.37073031012625
H            0.31605207086749       -2.62872329118110        0.52030628731921
H            0.08302747938865        1.96247139775797        1.45114986339445
H            2.42968700278087        2.70387309552246        1.68986209236810
H            4.84185670972940        2.33827464595139        1.23481263318361
