  45
        -70.41600796
 C          7.5458259850        1.7142726204        0.3377810568
 O          7.0619149678        0.5157163571       -0.2169732288
 C          5.7210773264        0.2881805221       -0.2104508798
 C          5.3217185710       -0.9344669738       -0.7869385246
 C          4.0014894001       -1.2801688146       -0.8404338761
 C          3.0038710221       -0.4249197734       -0.3161379966
 C          1.6459765439       -0.7634471007       -0.3486262782
 C          0.6787015857        0.0929267389        0.1761040891
 C         -0.7250197311       -0.1972349606        0.1545621007
 N         -1.6505578528        0.7367727529        0.0686354602
 C         -2.8664315710        0.1157866739        0.0029625254
 C         -4.0564401817        0.8860172670       -0.0827668417
 C         -3.9369744319        2.2716975923       -0.3371211695
 C         -5.0502514879        3.0680997585       -0.4471934314
 C         -6.3225060099        2.5242902339       -0.2966614233
 C         -6.4584322280        1.1688100289       -0.0183972353
 C         -5.3520782219        0.3580450159        0.0891544978
 C         -2.6601801276       -1.3096849166        0.0442936312
 C         -3.4638962282       -2.4256966263       -0.0537218073
 C         -2.8742523189       -3.7125873471        0.0805374799
 C         -1.5280639402       -3.8221327457        0.3447804931
 C         -0.7256246799       -2.6894689948        0.4104550513
 N         -1.2939931376       -1.4640681121        0.1840624043
 C          1.0859564903        1.3428735367        0.6982776261
 C          2.4043903933        1.6848365075        0.7492907878
 C          3.4069020929        0.8128374316        0.2569141914
 C          4.7676985913        1.1483675209        0.3020451217
 H          7.3007320006        1.7916503753        1.4020277804
 H          8.6273891250        1.6790497833        0.2186789664
 H          7.1517521929        2.5887052509       -0.1901867002
 H          6.0905993232       -1.5796132095       -1.1816995202
 H          3.7030263103       -2.2189720784       -1.2833963531
 H          1.3591842531       -1.6748683490       -0.8521962805
 H         -2.9442394968        2.6756850613       -0.4544402731
 H         -4.9398754480        4.1232627651       -0.6521785894
 H         -7.1973389655        3.1506984608       -0.3847252496
 H         -7.4441960382        0.7480648621        0.1213235311
 H         -5.4807269915       -0.6801006360        0.3460166925
 H         -4.5178217684       -2.3402132862       -0.2425337330
 H         -3.4968797232       -4.5881895235        0.0014063655
 H         -1.0708095130       -4.7856188423        0.5049173946
 H          0.3121418598       -2.7159174325        0.6880287761
 H          0.3191997181        2.0048418696        1.0683657128
 H          2.7050423258        2.6340029896        1.1689562367
 H          5.0436162668        2.0943949264        0.7419813131
