53
 energy: -83.886454883635 gnorm: 0.000069139684 xtb: 6.7.1 (edcfbbe)
C           -5.09332626251574       -0.81118897342204       -1.89336748462927
C           -3.76078398129543       -0.42416988090666       -1.25264919510931
C           -2.74024241215551       -0.18036729307524       -2.38280485499076
C           -3.22617948094813       -1.50360242182279       -0.32689673397907
C           -3.70865943163708       -2.80196903586793       -0.27386223535150
C           -3.17192793965123       -3.72368188511315        0.60940251515860
C           -2.16256328942702       -3.35090766345117        1.47867291997249
C           -1.67468132663025       -2.05798578402125        1.45071777437226
C           -2.18114406656359       -1.14855801560748        0.53130285344937
N           -1.73329174092229        0.19073580397382        0.50581429576008
C           -0.41765560707930        0.54765128608599        0.34351185637392
C           -0.03871817474821        1.88990057355470        0.16510817552210
C            1.28271311667487        2.23441688712406        0.01302777244843
C            2.29596972592920        1.27370614199423        0.01011469510092
C            1.92322522839367       -0.07470922816591        0.11475205603583
C            0.59163437028317       -0.42154172972939        0.26604401245167
C            2.92227617637584       -1.16437655248536        0.06271379190176
O            2.60307347916742       -2.33771054222385        0.12995019398780
C            4.33331465801505       -0.74296816898320       -0.06836847534511
C            5.32334717580543       -1.72247088772774       -0.10117550915573
C            6.65599162807906       -1.37507617861704       -0.21899811605533
C            7.01677442388114       -0.03844071089017       -0.30641271967659
C            6.04295500769012        0.94270855792333       -0.27619920161268
C            4.69766434981002        0.60619250754831       -0.15733665221081
C            3.69085288392849        1.69495783785912       -0.13221107795946
O            4.01660152345059        2.86790823380763       -0.22564300557229
C           -2.80209974928710        1.11072710597683        0.45704628983842
C           -2.84613436856008        2.20510661529075        1.31152282455294
C           -3.92727069019669        3.06542894338493        1.27227227315550
C           -4.97192240921014        2.81699029393550        0.40002593270492
C           -4.94760318710344        1.69990283886606       -0.41817574134584
C           -3.86847052378191        0.83003346588485       -0.40283953823829
H           -4.97146814569436       -1.70526511646812       -2.49953918270373
H           -5.43583812756045       -0.01851625001974       -2.55384836497699
H           -5.85228014393640       -0.99588022668214       -1.13637162916787
H           -1.76473043635909        0.09996267226653       -1.99536638462870
H           -2.62388185811471       -1.08558982140916       -2.97492236729019
H           -3.09253807577704        0.61894900872506       -3.03158514624427
H           -4.51003682356756       -3.11237505073747       -0.92429315623540
H           -3.55576783445657       -4.73248655552007        0.62662298384584
H           -1.76113337147456       -4.06007495773036        2.18610754927199
H           -0.91435096389005       -1.74654941374680        2.15068800463572
H           -0.79139986602363        2.66081804477776        0.12240608219187
H            1.56535615389033        3.26893030754086       -0.11375277770764
H            0.35737684458832       -1.47410788189667        0.29950443671595
H            5.01904910219646       -2.75651760781138       -0.03164523841482
H            7.41429371542169       -2.14365990627562       -0.24279404333896
H            8.05710799942417        0.23659957769180       -0.39837595872006
H            6.30076787269563        1.98942459813282       -0.34374208773475
H           -2.04375170524052        2.36666509914785        2.01564073042696
H           -3.95779264104989        3.91964109832563        1.93143342370927
H           -5.81830629138963        3.48612417231027        0.36530478620307
H           -5.78503722533246        1.51738996025168       -1.07157685060773
