52
 energy: -79.252471564233 gnorm: 0.000053277829 xtb: 6.7.1 (edcfbbe)
O           -2.78545261898690       -1.97096812396307        2.27849819986827
C           -2.84859354781392       -0.57157946486234        2.07765002017030
C           -3.58595498965603       -0.18982563085749        0.81480000399641
C           -4.97365150730906       -0.15719883065183        0.80926575330932
C           -5.67218452705478        0.19591240640665       -0.33180562813024
C           -4.98028493051857        0.53603666600684       -1.48296155620922
C           -3.59855526864236        0.50773362571728       -1.49111448699966
C           -2.88620146823767        0.13175282065172       -0.35344171468081
C           -1.41400447603472        0.07247470874632       -0.40139812224202
C           -0.65455851244107        1.27670643289450       -0.41021829443958
C           -1.26365713728522        2.53308819333440       -0.37202061301891
C           -0.50720971568654        3.70737568581890       -0.42351340486247
C            0.86416129030413        3.63918166463547       -0.51982597212504
C            1.50192516364162        2.39380017489069       -0.53038377910108
C            0.77104100192996        1.20462815240784       -0.44575850810516
C            1.41439293660863       -0.06577993677600       -0.40246019848553
C            2.88641127082887       -0.12663242869922       -0.35516877691677
C            3.59877368792458       -0.48549702095301       -1.49845751021489
C            4.98041826133829       -0.51614843125266       -1.49012148095450
C            5.67235762287724       -0.19536314135196       -0.33342411393017
C            4.97386261772487        0.14084741203532        0.81275795638567
C            3.58620269361439        0.17535980406548        0.81828574461614
C            2.84917110959766        0.53673968269596        2.08734449525369
O            2.79181061904742        1.93231194024081        2.31459939294451
C            0.65486792823811       -1.26962786171131       -0.43523428401265
C            1.26379810109811       -2.52656477925216       -0.42088838494387
C            0.50720063326686       -3.69961034889621       -0.49470695478188
C           -0.86412023872124       -3.62948608694663       -0.59009462457341
C           -1.50177091169841       -2.38407573188337       -0.57701095828850
C           -0.77071518561704       -1.19679692723846       -0.46966000993291
H           -2.30635828867008       -2.36138808414195        1.53264397622951
H           -1.83524215538972       -0.14480990779373        2.06186514297231
H           -3.37774631047856       -0.18215601677742        2.95200599400469
H           -5.50542850672491       -0.41211409750851        1.71463149667916
H           -6.75181486663441        0.21368714291892       -0.32068192436151
H           -5.51721845690662        0.82068977133660       -2.37595866293969
H           -3.05319667606384        0.76223804787327       -2.38871034153196
H           -2.33912329774874        2.59615528552824       -0.30546631398343
H           -1.00861673253974        4.66317670429847       -0.39646801807560
H            1.45771570084795        4.53918036365798       -0.58071490050313
H            2.57686241610535        2.34928582053722       -0.63415874931161
H            3.05346389417378       -0.72501437038700       -2.40020458680057
H            5.51731073160536       -0.78782601355965       -2.38716236382297
H            6.75195036349489       -0.21519495842494       -0.32207040080973
H            5.50557861645466        0.38074967897668        1.72224757031439
H            3.37590253425363        0.12859592289098        2.95460592469597
H            1.83408278781688        0.11461745447719        2.06274365354562
H            2.31352903325908        2.33864098496355        1.57676909027091
H            2.33921202008852       -2.59112410043992       -0.35504213492607
H            1.00854329113023       -4.65577809469959       -0.48575437376325
H           -1.45776767573281       -4.52807254582080       -0.66825487994297
H           -2.57671823532919       -2.33748200108757       -0.67986459135223
