  52
        -79.23160721
 O         -1.9460639740        0.0190815799        2.4736780714
 C         -2.9273585411       -0.8657789325        1.9770723906
 C         -3.6279294557       -0.3518886503        0.7419648848
 C         -5.0128965580       -0.3061217542        0.6875494168
 C         -5.6694271778        0.1901095746       -0.4258730889
 C         -4.9364834593        0.6685993164       -1.4992245754
 C         -3.5563021400        0.6347172472       -1.4568636882
 C         -2.8843930813        0.1125276908       -0.3520539403
 C         -1.4162566028        0.0584650749       -0.3644973079
 C         -0.6604420789        1.2691184662       -0.3894544515
 C         -1.2782359618        2.5203263313       -0.3534941080
 C         -0.5304668464        3.6970138366       -0.4260649290
 C          0.8408553421        3.6352899676       -0.5400725667
 C          1.4850859860        2.3964343573       -0.5413129001
 C          0.7627168918        1.2066353019       -0.4291073182
 C          1.4173765545       -0.0592864859       -0.3696187549
 C          2.8853868444       -0.1127724639       -0.3545377425
 C          3.5612417834       -0.6402311372       -1.4542993989
 C          4.9416331395       -0.6755757254       -1.4908134820
 C          5.6707541924       -0.1931693740       -0.4167113062
 C          5.0102003331        0.3092450692        0.6916033771
 C          3.6251927450        0.3565497767        0.7401476757
 C          2.9191412270        0.8748859729        1.9702429024
 O          1.9445374675       -0.0149085289        2.4724285033
 C          0.6614593395       -1.2700493244       -0.3908308265
 C          1.2791985740       -2.5213376835       -0.3571619782
 C          0.5310464056       -3.6979652866       -0.4257595802
 C         -0.8408771717       -3.6362736636       -0.5324493783
 C         -1.4849995232       -2.3974350096       -0.5311177527
 C         -0.7619544926       -1.2076267832       -0.4242123014
 H         -1.3884093813        0.2406781492        1.7125740001
 H         -3.6473372057       -1.0025732687        2.7860048453
 H         -2.4617853158       -1.8366498892        1.7543150908
 H         -5.5839837267       -0.6582475860        1.5341732939
 H         -6.7479616545        0.2133118102       -0.4498941677
 H         -5.4385031259        1.0664075130       -2.3681209639
 H         -2.9763675288        0.9930371177       -2.2948676046
 H         -2.3505526926        2.5761424293       -0.2675673991
 H         -1.0362996159        4.6498428202       -0.3994047784
 H          1.4264496615        4.5384442330       -0.6189026262
 H          2.5577683403        2.3532308988       -0.6368632723
 H          2.9846207898       -1.0017439566       -2.2931740812
 H          5.4467683454       -1.0777861603       -2.3557590328
 H          6.7493441258       -0.2175888866       -0.4361634693
 H          5.5782047093        0.6653070665        1.5386589530
 H          2.4455950037        1.8396438839        1.7395550808
 H          3.6366290561        1.0237136551        2.7789305636
 H          1.3871953591       -0.2428307673        1.7132059991
 H          2.3519348190       -2.5773628507       -0.2774117275
 H          1.0370669691       -4.6507888056       -0.4024251406
 H         -1.4268760728       -4.5394756489       -0.6076290508
 H         -2.5581912887       -2.3542898881       -0.6206135207
