52
 energy: -79.322086062398 gnorm: 0.000040916830 xtb: 6.7.1 (edcfbbe)
O           -2.38578554853854       -1.24002056418641        2.43229164055002
C           -2.83465396537704        0.06439795608890        2.10609100567884
C           -3.60696092323461        0.10754029074232        0.80960458845354
C           -4.99510541521375        0.12130960474686        0.81479761610312
C           -5.70922040528349        0.13568158552853       -0.37086255800056
C           -5.03666034461163        0.13318623435062       -1.58129691464241
C           -3.65367818451474        0.11389511616858       -1.60020791575718
C           -2.92956992880054        0.09898045875501       -0.41324477986919
C           -1.44604270127343        0.07777829362234       -0.45860978278043
C           -0.73128621962506        1.28265742802650       -0.43775987998476
C           -1.39038472944366        2.53971687831903       -0.38737090691367
C           -0.68464254089117        3.70303344835989       -0.35902968429026
C            0.72562661752913        3.68187600845449       -0.37845729233779
C            1.39503917902244        2.49784631826147       -0.42675446284018
C            0.69802596427467        1.26084442950952       -0.45909359567365
C            1.37636899640762        0.03579759037160       -0.50131099908573
C            2.85915911439373        0.01184240125411       -0.50783191585794
C            3.54705511042001        0.06641821054759       -1.71350172826264
C            4.93097353812370        0.04232848631042       -1.73758920926409
C            5.63774165001250       -0.03598892736633       -0.55045455842035
C            4.96023835637073       -0.09071479432565        0.65605859042891
C            3.57486509786742       -0.06751108767499        0.69000932149521
C            2.82233472461240       -0.13021031798384        1.99515388702299
O            3.71318740318568       -0.15693909934832        3.09032939112438
C            0.66151666281707       -1.16792567317040       -0.54056760840369
C            1.32034443242920       -2.42499864866270       -0.59277019812243
C            0.61647044508935       -3.58945740995243       -0.62598004702707
C           -0.79377811478790       -3.56980618858402       -0.61388312561840
C           -1.46460789819821       -2.38636770030481       -0.56412027970539
C           -0.76811907993481       -1.14703991975464       -0.52233754554719
H           -1.86538037046120       -1.57451787316251        1.68916201787252
H           -1.97694247008648        0.75179457200072        2.05542274007847
H           -3.47436166893861        0.36458439040225        2.93951345369213
H           -5.51814789880312        0.12111818668720        1.76029882450019
H           -6.78896707242638        0.14860233597903       -0.34959787294226
H           -5.58793132868518        0.14531712498134       -2.51009281110356
H           -3.11996246111778        0.11103533156713       -2.53995165169184
H           -2.47056071119916        2.55209011856015       -0.37153599537679
H           -1.19871860918437        4.65243847544973       -0.32140118549002
H            1.26876331385427        4.61541200585300       -0.35416356300383
H            2.47500699877077        2.47688004916516       -0.44142609024210
H            2.98644992595585        0.12741781927989       -2.63563447930796
H            5.45395610041000        0.08493216101290       -2.68181683581050
H            6.71768783751252       -0.05506540027954       -0.56064436460956
H            5.50007246072886       -0.15132845378685        1.58816863190698
H            2.18790825850958       -1.03114030726120        1.99685532603068
H            2.15629851069974        0.74459198524733        2.06485714246924
H            3.19664789341447       -0.20499994790778        3.90219599249715
H            2.40040969032665       -2.43505336438463       -0.60663437820624
H            1.13143373730287       -4.53815387758452       -0.66490815832065
H           -1.33675496921706       -4.50295376936873       -0.64615626388888
H           -2.54536146019345       -2.37115297053456       -0.56380953150097
