  130
       -202.62590820
 O         -7.9814776561        2.6038225854       -1.9646992417
 P         -7.2014511793        1.4698352342       -1.4520129402
 C         -5.4394305278        1.5777206074       -1.9042692991
 C         -4.6924281729        0.5089623160       -2.3735419969
 C         -3.3519358353        0.6921230757       -2.6654926714
 C         -2.7630297013        1.9350981832       -2.5039865052
 C         -3.5185159819        3.0090975195       -2.0610299557
 C         -4.8556730097        2.8298601959       -1.7596370235
 C         -7.8311819518       -0.1423283247       -2.0030611079
 C         -8.6903157055       -0.1215112497       -3.0935273611
 C         -9.2183272033       -1.3030666333       -3.5806859669
 C         -8.8890038140       -2.5041610810       -2.9737037051
 C         -8.0370697660       -2.5222679126       -1.8807316907
 C         -7.5054400095       -1.3440863667       -1.3888827845
 C         -7.2372403385        1.4385111131        0.3794582618
 C         -8.2757116584        2.1374272193        0.9798477619
 C         -8.3617966746        2.2365613125        2.3559139534
 C         -7.3905153823        1.6450261506        3.1473971721
 C         -6.3466113974        0.9500919495        2.5642714055
 C         -6.2742065662        0.8345490444        1.1819569707
 O         -5.2785790327        0.0744236305        0.6022174525
 C         -3.9881404163        0.4912678647        0.7072478331
 C         -3.5992060819        1.7933643573        0.9866877116
 C         -2.2573545437        2.1220061089        0.9514505938
 C         -1.2877902926        1.1714221197        0.6434425053
 C          0.1341448213        1.5317293303        0.5667408089
 C          1.1104739585        0.6976849676        1.1054490053
 C          2.4476312605        1.0285665329        1.0181958271
 C          2.8512081091        2.1902831374        0.3691873527
 C          4.3167445850        2.5689112776        0.3185890458
 C          5.2243394277        1.3665324441        0.1619719559
 C          4.8640409633        0.3241983421       -0.6858894117
 C          5.7018483908       -0.7563716682       -0.8756874702
 C          6.9246675377       -0.8173945739       -0.2140841234
 N          7.7675106635       -1.9233897234       -0.3867445340
 C          7.3983403592       -3.2465783665       -0.2499743332
 C          6.1726697104       -3.7901740998        0.1074759937
 C          6.0795076001       -5.1654974881        0.2004434301
 C          7.1768064587       -5.9877970833       -0.0458090530
 C          8.4040857698       -5.4518989054       -0.3806163064
 C          8.5227677586       -4.0720075706       -0.4818673963
 C          9.6189059633       -3.1935683306       -0.7800025930
 C         10.9514955752       -3.4051474479       -1.1087583454
 C         11.7514743129       -2.3097899302       -1.3647120909
 C         11.2349850152       -1.0168869004       -1.3110757038
 C          9.9129298636       -0.7806775633       -0.9872335272
 C          9.1097425797       -1.8767089682       -0.7061788923
 C          7.2979425179        0.2296899023        0.6220872016
 C          6.4580807523        1.3127151879        0.7977230822
 C          4.6509517703        3.5500270459       -0.7897703931
 C          4.5863999554        3.3624091898       -2.1536955184
 C          4.9626165779        4.4068487145       -2.9876466914
 C          5.3993236017        5.6136085609       -2.4628856239
 C          5.4711688375        5.8060734333       -1.0927350307
 C          5.0958638441        4.7678249447       -0.2563138523
 C          5.0625874051        4.6782391188        1.1945280950
 C          5.3818731778        5.6089563798        2.1693378517
 C          5.2484080953        5.2482756088        3.5003427413
 C          4.8018647666        3.9834489912        3.8515911270
 C          4.4799051981        3.0468811016        2.8785275927
 C          4.6182159057        3.3980042257        1.5529079667
 C          1.8785869788        3.0313896578       -0.1562978242
 C          0.5391013010        2.7080554168       -0.0573767803
 C         -1.6901118879       -0.1405228709        0.4064474701
 C         -3.0258615574       -0.4847119723        0.4510463593
 P         -3.6630360532       -2.1696712280        0.1655494794
 O         -4.3385787110       -2.3873647891       -1.1179972538
 C         -4.7041760830       -2.5159270717        1.6191984490
 C         -5.8335745246       -3.2918726225        1.4064660172
 C         -6.6842382935       -3.5857010177        2.4566679828
 C         -6.4000560329       -3.1087127204        3.7255455747
 C         -5.2677119647       -2.3393253128        3.9419912648
 C         -4.4192783445       -2.0396648729        2.8915026862
 C         -2.1976492892       -3.2347624454        0.3671330948
 C         -1.3980797693       -3.2227922350        1.5037008351
 C         -0.2923153362       -4.0493714154        1.5745829305
 C          0.0166618769       -4.8921211790        0.5175387750
 C         -0.7843266751       -4.9125361015       -0.6119521384
 C         -1.8903174638       -4.0839849866       -0.6855466081
 H         -5.1446043792       -0.4637532206       -2.4870615002
 H         -2.7657240014       -0.1447308287       -3.0152680565
 H         -1.7141945641        2.0685276062       -2.7277149349
 H         -3.0638624986        3.9828913501       -1.9470931625
 H         -5.4673489065        3.6540774229       -1.4175684200
 H         -8.9362314998        0.8309534757       -3.5410929191
 H         -9.8847102559       -1.2891891837       -4.4309677234
 H         -9.2988176241       -3.4294216862       -3.3526161000
 H         -7.7839582537       -3.4622279297       -1.4127144888
 H         -6.8337514514       -1.3578613220       -0.5453465549
 H         -8.9998893595        2.6157594472        0.3363786667
 H         -9.1755427262        2.7802462827        2.8114042337
 H         -7.4418590166        1.7246920366        4.2230007200
 H         -5.5827654687        0.4852349566        3.1701958313
 H         -4.3429662779        2.5438333683        1.2119099997
 H         -1.9568066290        3.1353747259        1.1718393857
 H          0.8168357442       -0.2091521813        1.6143451163
 H          3.1879303323        0.3704598391        1.4499577590
 H          3.9141356130        0.3539229595       -1.1994084229
 H          5.4184376427       -1.5533042547       -1.5469615309
 H          5.3206207005       -3.1607370904        0.3165648845
 H          5.1353216491       -5.6132975795        0.4741006512
 H          7.0626409836       -7.0585845874        0.0357731360
 H          9.2582003815       -6.0881817529       -0.5570350705
 H         11.3476932735       -4.4077585940       -1.1663828219
 H         12.7907076825       -2.4521627703       -1.6213415589
 H         11.8818023413       -0.1804980961       -1.5317699703
 H          9.5168596776        0.2235996365       -0.9648361205
 H          8.2416451722        0.1843954501        1.1446589946
 H          6.7623514149        2.1190908493        1.4484229109
 H          4.2473595356        2.4255739572       -2.5700760795
 H          4.9143903022        4.2767164383       -4.0587382651
 H          5.6878094040        6.4117617222       -3.1311295220
 H          5.8132076455        6.7460043093       -0.6859470193
 H          5.7265879085        6.5956786704        1.8982568471
 H          5.4929939700        5.9607204016        4.2746004996
 H          4.7023256584        3.7233393429        4.8951714539
 H          4.1307308028        2.0637944296        3.1578616573
 H          2.1719421319        3.9453859649       -0.6517032219
 H         -0.2035887199        3.3630230562       -0.4886856816
 H         -0.9553313352       -0.8960742712        0.1672581049
 H         -6.0313482774       -3.6481261273        0.4057796638
 H         -7.5685997036       -4.1826547700        2.2881053366
 H         -7.0625777127       -3.3330257759        4.5485562120
 H         -5.0500462286       -1.9674625140        4.9333776101
 H         -3.5475560493       -1.4200175872        3.0547400926
 H         -1.6381282367       -2.5652494150        2.3264386089
 H          0.3329213760       -4.0380612079        2.4557352054
 H          0.8830727855       -5.5343806803        0.5776147916
 H         -0.5453946896       -5.5714868755       -1.4339464596
 H         -2.5295938407       -4.0773084197       -1.5566796867
