130
 energy: -202.626096798280 gnorm: 0.000063638751 xtb: 6.7.1 (edcfbbe)
O           -7.98727886256471        2.52551367820552       -2.08461449359448
P           -7.20373145472809        1.41138424295610       -1.53515294734524
C           -5.44247337325637        1.50654025732684       -1.99294767079361
C           -4.69717103754291        0.42964438344172       -2.44596352193395
C           -3.35617342874615        0.60613363671298       -2.73953471743228
C           -2.76507711331239        1.85037071050289       -2.59598816497658
C           -3.51900430341231        2.93224799959714       -2.17022783160920
C           -4.85665946397478        2.75971184738713       -1.86697351762259
C           -7.83856582390516       -0.21990246690747       -2.01974199200031
C           -8.74240081008784       -0.23671486326651       -3.07344456891933
C           -9.28160041520040       -1.43549878258214       -3.50310958303022
C           -8.91828714405389       -2.61606700960031       -2.87568207546463
C           -8.02107901715239       -2.59653958115382       -1.81954033770416
C           -7.47880405698317       -1.40103278454364       -1.38459425974103
C           -7.23162730104439        1.44407566762326        0.29643049352749
C           -8.27161871435673        2.15775669012259        0.87635272144220
C           -8.35530223463517        2.30068456457673        2.24868712529420
C           -7.38072417843493        1.73734594972208        3.05654443556932
C           -6.33502846201331        1.02853469366409        2.49365183215949
C           -6.26402626350549        0.87030937177516        1.11545050576759
O           -5.26433173712916        0.09908792332286        0.55751822376205
C           -3.97561352831820        0.52310161774626        0.65624404121154
C           -3.59205359148436        1.83245971466289        0.90817838261300
C           -2.25092659550283        2.16453576352117        0.87641255890402
C           -1.27594791154254        1.21095667977102        0.59568979008434
C            0.14659862845756        1.57103269536436        0.53184968356781
C            1.11535064731481        0.73759067631053        1.08565496964518
C            2.45364862679989        1.06616930783977        1.01366351194996
C            2.86700120005457        2.22704002186053        0.36899726232684
C            4.33514174701912        2.59781361985257        0.33726577934640
C            5.22986087589792        1.38679599764857        0.17038753012856
C            4.86510061351776        0.36668015721513       -0.70233228865094
C            5.68629050165566       -0.72518132498425       -0.89845097801246
C            6.89569823116211       -0.82176486405716       -0.21646975460991
N            7.71685894021784       -1.94350974804076       -0.39187287851707
C            7.31177477702498       -3.25958249140190       -0.29123079534590
C            6.06622972684111       -3.77967879957195        0.03091308626571
C            5.93676506497656       -5.15392498000592        0.09064818930960
C            7.01719679148656       -5.99846012840180       -0.15448985822008
C            8.26406735546630       -5.48668691541828       -0.45268902259821
C            8.41956408265392       -4.10836364462719       -0.51847909752353
C            9.54376293182277       -3.25210746672152       -0.77338197122078
C           10.87802806920708       -3.49169009911837       -1.07455923839352
C           11.71202384607813       -2.41250633348458       -1.28715122081000
C           11.22737637948098       -1.10811682113764       -1.21769313864104
C            9.90424208432457       -0.84420224797745       -0.92019045646152
C            9.06655201477630       -1.92433758686249       -0.68165375252146
C            7.27426912989394        0.20360620324535        0.64379473768616
C            6.45187542181360        1.29944600801624        0.82436859051122
C            4.68889602295256        3.59243223888739       -0.75265116627188
C            4.63422974515066        3.42729141968128       -2.11996965097112
C            5.03058267642528        4.47992518818736       -2.93402673620383
C            5.47764016035458        5.67268209351036       -2.38650106892359
C            5.53910014328800        5.84280927300794       -1.01291039308428
C            5.14335199098546        4.79640420991624       -0.19633596796607
C            5.09608908568317        4.68479928627236        1.25250002589799
C            5.41700919086753        5.59695486687168        2.24417591331030
C            5.26767653214554        5.21776349965487        3.56833867547744
C            4.80389030894910        3.95288892865824        3.89618324191776
C            4.48023505912439        3.03495131361056        2.90606899833968
C            4.63403428324087        3.40436179993984        1.58707997454745
C            1.90240810859485        3.06776326234680       -0.17110374265850
C            0.56131477606907        2.74491573188679       -0.09047080282751
C           -1.67362639414559       -0.10635695429198        0.38109192816433
C           -3.00832129764949       -0.45431289964848        0.42541476325936
P           -3.63306122183920       -2.15048441413722        0.18348360726375
O           -4.30542411786462       -2.40863532424321       -1.09417737872939
C           -4.67045922414013       -2.46617236729621        1.64671408305122
C           -5.78479076816510       -3.26993201944614        1.45978239289526
C           -6.62737238578421       -3.54931274466001        2.52037708621868
C           -6.35024682473344       -3.02947377250859        3.77386881942744
C           -5.23346880611727       -2.23120205217813        3.96446780695914
C           -4.39286681164057       -1.94660823954504        2.90358321051627
C           -2.16184581660565       -3.20121141457158        0.41707359632327
C           -1.37279584854959       -3.16384381941660        1.56018873961292
C           -0.26434661892027       -3.98426297122035        1.65724836229736
C            0.05741134515123       -4.84644314300456        0.61994133104827
C           -0.73299002667938       -4.89196684659563       -0.51617514065221
C           -1.84156232488172       -4.06966109248311       -0.61582799800510
H           -5.15128675385036       -0.54364504407023       -2.54584456945586
H           -2.77105288679996       -0.23675724130597       -3.07632759303206
H           -1.71574733590496        1.97864693573278       -2.82032373231905
H           -3.06287738475539        3.90691415048574       -2.07063620893999
H           -5.46698252098845        3.59032701396888       -1.53789096620905
H           -9.01285963486354        0.70037626213116       -3.53880657573646
H           -9.98326846406471       -1.45088102182123       -4.32446970779414
H           -9.33705963322086       -3.55463036263201       -3.20941854539800
H           -7.74129388311495       -3.52054998809415       -1.33534461497668
H           -6.77282840904359       -1.38567870338784       -0.56966462366609
H           -8.99927862364371        2.61190172521342        0.21936427355306
H           -9.16987168419949        2.85608477370086        2.68825989803710
H           -7.43031507106621        1.85083603562622        4.12916947065766
H           -5.56833161043899        0.58615151578261        3.11272439222215
H           -4.33936459445306        2.58534083609939        1.11250182389022
H           -1.95549274053364        3.18294291203770        1.07973759479660
H            0.81474194811517       -0.16742883965851        1.59363421002562
H            3.18782247451732        0.40674250115851        1.45377256857748
H            3.92383120809761        0.42237670303091       -1.22935636749848
H            5.39992076780434       -1.50422638283945       -1.58913356768822
H            5.22614402679293       -3.13401378955137        0.23890437653050
H            4.97637574440726       -5.58314381834286        0.33634552489690
H            6.87437785982890       -7.06751977898339       -0.10053602924760
H            9.10533180015798       -6.14024302163569       -0.62759341761745
H           11.24940444897797       -4.50302458026212       -1.14415673852819
H           12.75363509207014       -2.57652317193584       -1.52005761741420
H           11.90050236815792       -0.28423769445881       -1.40416711669508
H            9.53421194110023        0.16955834589567       -0.88672859757346
H            8.20727053131996        0.13112488618777        1.18223696134763
H            6.76001953489108        2.08834316164643        1.49438976103940
H            4.28786561853399        2.50134100892945       -2.55422556760360
H            4.99037592151232        4.36714850869386       -4.00741421875666
H            5.78208423496329        6.47755329271398       -3.03941376720079
H            5.88898180824515        6.77200353647948       -0.58849510914022
H            5.77494940192622        6.58380745182945        1.99137439408074
H            5.51305305175684        5.91569984008176        4.35545418261945
H            4.69219284717431        3.67794606059216        4.93472915893946
H            4.11802524706127        2.05179307968291        3.16776962632297
H            2.20298039449313        3.98063288497878       -0.66426871552157
H           -0.17433576864373        3.39897875766486       -0.53502558361249
H           -0.93583327851859       -0.86477711294664        0.16125845766620
H           -5.97726373402402       -3.65993860348275        0.47071977472246
H           -7.49947964032863       -4.16911000068715        2.37204420507963
H           -7.00604522223584       -3.24317805707947        4.60500874858354
H           -5.02133505783229       -1.82585064566020        4.94383849295688
H           -3.53247903071666       -1.30630486520753        3.04639112384096
H           -1.62311895023384       -2.49188115835237        2.36802389751237
H            0.35287768186865       -3.95313056028537        2.54371215695193
H            0.92550571582995       -5.48412102945698        0.70076771662163
H           -0.48414086656723       -5.56601876191096       -1.32267685095078
H           -2.47353493935026       -4.08315436613832       -1.49202644685942
