41
 energy: -69.869200220298 gnorm: 0.000196067962 xtb: 6.7.1 (edcfbbe)
C           -5.61792754189631        1.88265872661225       -0.08057356099890
O           -4.21703896325235        1.72395629810207       -0.05569377016151
C           -3.69965735273845        0.46002829392431       -0.00398479438916
C           -4.48389210863792       -0.71738247648961        0.03946558846990
C           -3.90100446457423       -1.99374844377740        0.10195905721545
O           -4.50882452758274       -3.06555178839201        0.14902301579604
O           -2.51248572868444       -2.07911180681160        0.11190676756766
C           -1.73414315761087       -0.96077672285515        0.05845923584339
C           -0.37335887454671       -1.16428703966975        0.06151569488327
C            0.46738014130999       -0.02889884691009       -0.00461593128983
C           -0.06627013716678        1.27984583524989       -0.01279072134416
C           -1.42670945576417        1.48633855971696       -0.01068030173413
C           -2.30344542643557        0.34481058982797        0.00794248420458
C            1.07106055777304        2.17127953023971       -0.01262933673534
C            1.20373085180050        3.54745004150175       -0.03750362068222
C            2.48127264735459        4.09159638292576       -0.05911975957309
C            3.61309581956467        3.27748182878898       -0.07879328101239
C            3.50635336481261        1.89878322960066       -0.05780260897003
C            2.22985809974451        1.34815640655353        0.00071694745840
N            1.83973170003436        0.02680397813764        0.00497359963680
C            2.69970990810610       -1.07329759609725       -0.01256566975607
C            3.77547788623741       -1.13796073474477        0.87525702737039
C            4.62321138259352       -2.22830104813792        0.84910887128822
C            4.41265210054054       -3.25865001107834       -0.05551778964697
C            3.34344012263451       -3.19636959146366       -0.93719509556905
C            2.48744896840552       -2.11242813256314       -0.92084627155088
H           -6.05920101848438        1.40610873593204       -0.96112358649202
H           -6.08306549372295        1.47936360334982        0.82392996277997
H           -5.78472030575608        2.95767814871852       -0.12690323501974
H           -5.55945699349609       -0.69037437856292        0.03216923169103
H            0.01266356807871       -2.16740186027336        0.13006778934454
H           -1.86655044762982        2.46737371766726       -0.01513938638807
H            0.33130240545498        4.18182496159753       -0.04548281696667
H            2.60252633609581        5.16405523011508       -0.07516809855675
H            4.59106998238323        3.73200669898084       -0.11708557396071
H            4.38528563611248        1.27501863207672       -0.09938593853853
H            3.91480661138200       -0.35235429284290        1.60197878686952
H            5.44708890885365       -2.27939301225529        1.54468992416786
H            5.07773227409698       -4.10835189739522       -0.07235869388157
H            3.17962407056271       -3.99309996700734       -1.64695222601519
H            1.67218700473669       -2.04464937220308       -1.62500454386012
