41
 energy: -69.966954521805 gnorm: 0.000094198331 xtb: 6.7.1 (edcfbbe)
C           -6.02813628948882        0.66630973175533       -0.03068077203473
O           -4.61284745734529        0.71211786296287       -0.02621030486955
C           -3.92438168372106       -0.43406986760847       -0.09008863254938
C           -4.46543850112335       -1.68261450580564       -0.16673640308052
C           -3.64970243036797       -2.85913367094871       -0.23443430787693
O           -4.07569013021874       -3.99898987382359       -0.30983216307900
O           -2.29336648593163       -2.70006342244894       -0.21206633990330
C           -1.71503959395991       -1.47101461518929       -0.12911569276353
C           -0.32786864339886       -1.43542570723392       -0.10432359360484
C            0.28591280697453       -0.19651710400171       -0.01107228637658
C           -0.47850488827562        1.00565784127941        0.02648750139808
C           -1.85478788097039        0.95350013000594       -0.00092675350791
C           -2.48681159691134       -0.29066576553749       -0.07011968529904
C            0.47046945626754        2.08429181090368        0.08704907294927
C            0.34327385324339        3.46560730330219        0.15813899993072
C            1.49164275033495        4.23025154868821        0.22749057365123
C            2.75066584286764        3.63382368486657        0.23989819160179
C            2.90101803452434        2.26088630507105        0.17022183608505
C            1.75193397628769        1.48955048928014        0.07950804177937
N            1.61864458674836        0.11186877313832        0.01858148701811
C            2.68190332441658       -0.81216038938789        0.00177492078045
C            3.70439518978106       -0.67789863413166       -0.93177550684424
C            4.75345670334701       -1.57978419457444       -0.93796522891106
C            4.78407206145454       -2.62147462171045       -0.02520660116299
C            3.76209121794979       -2.75863221469352        0.89995087405480
C            2.71400426600288       -1.85588147235864        0.92070486192522
H           -6.40462033559106        0.21781440128720       -0.95327506055275
H           -6.40593999506846        0.10740627159305        0.82894103186942
H           -6.35109410496911        1.70353674643876        0.03342971470618
H           -5.52642653372009       -1.86437757690718       -0.18464843973783
H            0.22651774879115       -2.35751241369823       -0.16450311667590
H           -2.45548900918885        1.84750238259817        0.02946761081335
H           -0.63281342416067        3.92565701490337        0.16200702974779
H            1.41696088625491        5.30612419947504        0.28074166322539
H            3.62980020735912        4.25735657759212        0.30820292978913
H            3.87961040508565        1.80710991078658        0.19545255025640
H            3.66619178770315        0.12432839820959       -1.65345284655503
H            5.54603872407077       -1.47209184595374       -1.66342918771678
H            5.60225006617320       -3.32576732902315       -0.03500149009508
H            3.78301545002831       -3.56790830486737        1.61473051592126
H            1.92509263875673       -1.94871485425083        1.65208400567828
