41
 energy: -69.966917144981 gnorm: 0.000050200712 xtb: 6.7.1 (edcfbbe)
C           -5.61784018923492        1.85339706969962        0.01472042174053
O           -4.21463480837619        1.66320583294576        0.00328623873573
C           -3.72712002452123        0.41670418830986        0.02537245128491
C           -4.46944612424240       -0.72576122171177        0.06046131069671
C           -3.86219861344546       -2.02379797662735        0.08317873071788
O           -4.47298969251516       -3.07847856569807        0.11576653301250
O           -2.49838158479063       -2.09279465427320        0.06676145971199
C           -1.72240001469598       -0.97550372528045        0.03029181235393
C           -0.34861669914117       -1.17159742219120        0.01605224913341
C            0.46429840178205       -0.05029085392708       -0.02687815694301
C           -0.08806165700246        1.26349889797392       -0.03054857191017
C           -1.45410730770350        1.44125422332253       -0.01514830965317
C           -2.28564837783368        0.31862334989183        0.00965658303079
C            1.02893535935264        2.16915455305613       -0.04011203663364
C            1.13670940362026        3.55376601060174       -0.06182989506424
C            2.39812683708239        4.11631405066550       -0.08570029646095
C            3.53966565413596        3.31774801491811       -0.10086848272300
C            3.45641365983411        1.93753350247884       -0.07954674865431
C            2.19264223110438        1.36802696061997       -0.03532641329849
N            1.82999746561363        0.03123086272680       -0.02703885513320
C            2.72237725559038       -1.05900550237078       -0.01276065805740
C            2.61316056176899       -2.06173062644316       -0.97035756214738
C            3.48977618955017       -3.13175313113730       -0.94877589857424
C            4.48098728451092       -3.20278676287031        0.01651247100176
C            4.59241329849598       -2.20099713292690        0.96688617092064
C            3.71451119745959       -1.13182003753731        0.95928308804313
H           -6.08307899919655        1.39998168568322       -0.86399462050257
H           -6.06395676818479        1.43697402625336        0.92117208885628
H           -5.76393614646220        2.93155064704848       -0.00609844590180
H           -5.54594496726215       -0.72823877075107        0.07373671106327
H            0.04333054582924       -2.17488563769700        0.04668838508612
H           -1.89704906988064        2.42352755761635       -0.01822485630920
H            0.25201697077046        4.17155933736235       -0.06334210301036
H            2.50558857407115        5.19061597704662       -0.10068396323404
H            4.51182291350434        3.78700260750269       -0.13277832024901
H            4.34516179984938        1.32612097890600       -0.10553727144358
H            1.84946818393340       -1.99264184047666       -1.73062230951738
H            3.40114781045180       -3.90924899824134       -1.69294690687642
H            5.16545762770225       -4.03759872340629        0.02786233095016
H            5.36142765404167       -2.25508331450387        1.72304664702248
H            3.78504511863795       -0.35774572211446        1.70876828999970
