  41
        -69.93723587
 C         -5.6118263921        1.8494682945        0.0021852230
 O         -4.2116787724        1.6653989843       -0.0111531444
 C         -3.7250956459        0.4150097696        0.0181875718
 C         -4.4656902940       -0.7245653045        0.0567445598
 C         -3.8576811831       -2.0280191247        0.0876415466
 O         -4.4669991367       -3.0768751395        0.1226937112
 O         -2.4914741057       -2.0902620028        0.0734310078
 C         -1.7211347915       -0.9769963857        0.0338287121
 C         -0.3457993249       -1.1697212895        0.0227996231
 C          0.4645709164       -0.0484987494       -0.0222465856
 C         -0.0865397053        1.2636269672       -0.0282001877
 C         -1.4532962245        1.4401793358       -0.0174310280
 C         -2.2825550049        0.3177904640        0.0068210975
 C          1.0296163069        2.1697339970       -0.0344672083
 C          1.1358147925        3.5538199736       -0.0562983113
 C          2.3961971574        4.1183194591       -0.0772357981
 C          3.5383528571        3.3215565810       -0.0904471529
 C          3.4568300431        1.9414502701       -0.0693424614
 C          2.1942720981        1.3700354363       -0.0262966870
 N          1.8328323864        0.0336377150       -0.0192254496
 C          2.7210679277       -1.0564784037       -0.0104304571
 C          2.5898357978       -2.0697888038       -0.9539224481
 C          3.4625887306       -3.1423388107       -0.9380893115
 C          4.4721631938       -3.2066716643        0.0072333231
 C          4.6068936866       -2.1943317960        0.9434878228
 C          3.7326427512       -1.1226684654        0.9417758199
 H         -6.0795377779        1.3913523316       -0.8738351144
 H         -6.0568645019        1.4348194388        0.9112794402
 H         -5.7659048962        2.9266550509       -0.0222849981
 H         -5.5420503471       -0.7262643892        0.0669826081
 H          0.0490192721       -2.1714752290        0.0598501941
 H         -1.8960593198        2.4227653836       -0.0237913459
 H          0.2497456552        4.1697879048       -0.0603600297
 H          2.5022511253        5.1924874514       -0.0918666571
 H          4.5100082487        3.7914579044       -0.1211613366
 H          4.3468963647        1.3313261232       -0.0959884822
 H          1.8122058746       -2.0053156227       -1.6999526470
 H          3.3571498433       -3.9269866865       -1.6715908638
 H          5.1536051166       -4.0436140796        0.0142465596
 H          5.3908135423       -2.2425464437        1.6843755918
 H          3.8198450551       -0.3411843494        1.6824807170
