94
 energy: -150.534241214389 gnorm: 0.000158437028 xtb: 6.7.1 (edcfbbe)
N            1.93811766598682       10.09046907628096       -0.18680779449547
C            1.40706553643951        9.07497988215941       -0.13290464453170
C            0.70756478289434        7.84758726577788       -0.06278415796239
N            1.38817850949177        6.71289986655769       -0.11599646569233
C            0.71188938048101        5.56574270562670       -0.05486390073577
C            1.43042127794425        4.32615236027746       -0.09517947194561
C            2.83049812445960        4.32755777961968       -0.17923690328248
C            3.53582898604409        3.15237772091534       -0.19536681815731
C            2.86219658450366        1.92349850621608       -0.12902924679877
C            3.59956049208957        0.65897663785634       -0.12335595919019
C            4.81394726158015        0.53885034146720        0.55562518942780
C            5.49282323419174       -0.65886611985086        0.59527110995981
C            4.98959010644247       -1.78527899040856       -0.06266555140757
N            5.66847219468105       -2.99827845714949       -0.01828815199901
C            7.07100163762132       -3.02123326810824        0.04027080225279
C            7.72677417474582       -3.93846573241225        0.86014643674085
C            9.10766565648403       -3.96316003422741        0.90949090752054
C            9.85260256982241       -3.07452146810892        0.15078965078329
C            9.20482884277035       -2.16079404284996       -0.66515363466168
C            7.82456235342793       -2.13309146292396       -0.72624867705003
C            4.96252130980966       -4.21046283225918       -0.02661666554899
C            3.76167465035378       -4.33753586521782        0.67142084515765
C            3.07034909737892       -5.53386121722093        0.65531606474542
C            3.56785163844300       -6.62257894053848       -0.04283262086280
C            4.76565830610299       -6.50444867967480       -0.72934199606232
C            5.45876814876070       -5.30886526017109       -0.72801282462822
C            3.78611031108470       -1.66342926544347       -0.76378053365823
C            3.10363402706433       -0.46776556799919       -0.78356702925667
C            1.47475224339804        1.92362694172389       -0.05553342143460
C            0.72730426359920        3.10098587809013       -0.03991991204384
C           -0.72633626004429        3.10132183112495        0.04028491131562
C           -1.47438739340093        1.92436877928847        0.05654353950500
C           -2.86182091966760        1.92501804920198        0.13036786042044
C           -3.59977870329897        0.66086285479398        0.12592754611398
C           -3.10354234341923       -0.46581963637415        0.78603686790937
C           -3.78626418187191       -1.66134040694670        0.76700468055822
C           -4.99037043420306       -1.78297090613497        0.06695873833624
N           -5.66901880374975       -2.99618005754499        0.02288944871384
C           -7.07155850052947       -3.01943581356060       -0.03367655948094
C           -7.82410594072326       -2.13190692295839        0.73456335627310
C           -9.20446433002916       -2.15986756288877        0.67561688979931
C           -9.85334549778226       -3.07326291256587       -0.13981291706135
C           -9.10941367584291       -3.96119414616017       -0.90033031511234
C           -7.72846596607939       -3.93617307971775       -0.85322056309544
C           -4.96229314805027       -4.20790435011492        0.02608870068490
C           -5.45646624628144       -5.30880241437496        0.72506137531158
C           -4.76293037084067       -6.50412417887033        0.72080311099060
C           -3.56659742788128       -6.61950143277703        0.03124710770205
C           -3.07095245015312       -5.52819633365505       -0.66415805991010
C           -3.76275804782929       -4.33208433456402       -0.67471249240030
C           -5.49424488061124       -0.65650617314285       -0.59033183555848
C           -4.81496452481684        0.54101658742534       -0.55166343335086
C           -3.53486636400163        3.15426049921014        0.19591157954581
C           -2.82894455521917        4.32905468935577        0.17902430823037
C           -1.42886465169765        4.32682315389463        0.09507505582081
C           -0.70973351894444        5.56602857211175        0.05463428725859
N           -1.38562643323078        6.71340314755831        0.11592516040001
C           -0.70461823476204        7.84785908609941        0.06284883205291
C           -1.40392915196407        9.07535018678262        0.13352380339227
N           -1.93484371426965       10.09093009521813        0.18674702385417
H            3.33364152300303        5.28097739512506       -0.23038436359588
H            4.61166372657125        3.17031289271138       -0.27716141735545
H            5.20927319880851        1.38566310525176        1.09653129583360
H            6.41663737090905       -0.73645747785050        1.14929127783703
H            7.14678018670740       -4.62734324228354        1.45704272240997
H            9.60490228530105       -4.67629279322536        1.55076284607528
H           10.93122812344977       -3.09457857269432        0.19398561626199
H            9.77834242293243       -1.46963302531191       -1.26552996258655
H            7.32082866600252       -1.42698278894831       -1.37035985877516
H            3.37841307903536       -3.49511084113850        1.22853377280530
H            2.14130098121319       -5.61864183853589        1.20012809352220
H            3.02700822443723       -7.55700320734472       -0.05045650226993
H            5.16036035676584       -7.34699902340599       -1.27829811637248
H            6.38794755084013       -5.21764815954158       -1.27147073764847
H            3.39572221615409       -2.51617268174303       -1.29925205629154
H            2.18930259931919       -0.39475970286524       -1.35340449576989
H            0.97655584886122        0.97172167420581        0.01924179382176
H           -0.97670419561126        0.97217331655856       -0.01788902761710
H           -2.18870606727657       -0.39286746756481        1.35505793620158
H           -3.39555188637941       -2.51420224488041        1.30205196794039
H           -7.31952766891777       -1.42605057386518        1.37829037096441
H           -9.77718430139004       -1.46915853128261        1.27727191513545
H          -10.93203211978518       -3.09357368792086       -0.18127044793203
H           -9.60748799214577       -4.67401067974192       -1.54130263954880
H           -7.14927718366692       -4.62442813998976       -1.45161083512043
H           -6.38448505684326       -5.21976352602286        1.27086137385142
H           -5.15615658421885       -7.34870728383914        1.26768775321640
H           -3.02551569061450       -7.55381260487046        0.03430429180241
H           -2.14301582266924       -5.61071918254163       -1.21120572614852
H           -3.38094743136565       -3.48765041505347       -1.22977205774224
H           -6.41872401633144       -0.73397338965360       -1.14325815009849
H           -5.21061527236977        1.38781652000673       -1.09233734140842
H           -4.61068218663620        3.17279513067637        0.27771517135297
H           -3.33154243539646        5.28278668655659        0.22960222569386
