94
 energy: -150.534133772362 gnorm: 0.000070722683 xtb: 6.7.1 (edcfbbe)
N            1.97160313399905       10.85323642293474        0.32666090598585
C            1.43804095548589        9.83981114772211        0.26077813367982
C            0.73494191887805        8.61530801434977        0.17644513434089
N            1.41253850431570        7.47832428698227        0.21804889498231
C            0.73338197727117        6.33364085221196        0.14455840558476
C            1.44916509587642        5.09203618699803        0.16699541605908
C            2.84970007600625        5.08904639181884        0.24222711085185
C            3.55218896082111        3.91208549002731        0.23791463953593
C            2.87542466228403        2.68575246097084        0.15630127499748
C            3.61009924792543        1.42008569063190        0.12399373425631
C            3.11350558749993        0.28138683240490        0.76289009006528
C            3.79301362181444       -0.91526981120838        0.71737179124004
C            4.99516964611484       -1.02509408058336        0.01220838630116
N            5.67158164137074       -2.23856981352427       -0.05748691938826
C            7.07408073441248       -2.26309229578755       -0.10999039799433
C            7.73267562196459       -3.16544223420820       -0.94410351121025
C            9.11375174007595       -3.19190508491646       -0.98645077210024
C            9.85626236084413       -2.31951877570189       -0.20678723935214
C            9.20575380185689       -1.42011542229906        0.62277338535529
C            7.82525165445171       -1.39106447876512        0.67717796700092
C            4.96161762521279       -3.44803156116370       -0.08391143093407
C            3.76406853666876       -3.55243368959408       -0.79130378161449
C            3.06893939744308       -4.74648962199288       -0.81044458226773
C            3.55843719012234       -5.85474474377471       -0.13795645407988
C            4.75264940602585       -5.75867053740532        0.55822842144561
C            5.44988057543661       -4.56598013133339        0.59178496019400
C            5.49969435751778        0.11314504164403       -0.62383355225211
C            4.82288144829968        1.31096966436007       -0.55986273908556
C            1.48743041098380        2.69013911535126        0.09294797665337
C            0.74273405969333        3.86931043148941        0.10198775175462
C           -0.71177683815700        3.87415602235118        0.04042271395824
C           -1.46348070901840        2.69950283451509        0.03229076771479
C           -2.85108578149518        2.70460966857689       -0.03563781201058
C           -3.59322761833603        1.44278141770473       -0.02551841909613
C           -3.17911587314875        0.37623907952107        0.77566244784315
C           -3.87208764261639       -0.81322426186568        0.79225323999601
C           -5.00192478802628       -0.99039695000075       -0.01195735362889
N           -5.69145173477316       -2.19842738810339       -0.00902815608445
C           -7.08200294687902       -2.22619432934198       -0.19280519513211
C           -7.89334231981922       -1.24866595676303        0.38254417204524
C           -9.26234218340190       -1.28438879045466        0.19799105811418
C           -9.84361107159014       -2.29556034739185       -0.55021145758714
C           -9.04216964932839       -3.27319026200849       -1.11770515968528
C           -7.67138047691666       -3.24061179431627       -0.94650637771499
C           -5.00130510038000       -3.40428951048470        0.19091971403094
C           -5.55955852986081       -4.41471814658884        0.97281397245063
C           -4.87853109962658       -5.60189403273874        1.16456680806887
C           -3.63296995120471       -5.79740698263531        0.58976757384277
C           -3.07413613732740       -4.79600337082626       -0.18803644347949
C           -3.75166952492480       -3.60931336892203       -0.39326060790143
C           -5.41862710580247        0.07331093950181       -0.81791677204179
C           -4.73196922963091        1.26755430369785       -0.81410178978116
C           -3.52061592535455        3.93509306073102       -0.10903210416986
C           -2.81139493369406        5.10803064424063       -0.09021603660325
C           -1.41121398660214        5.10170964124825       -0.00849637681668
C           -0.68845717731226        6.33871342926578        0.03749751879469
N           -1.36105367308434        7.48840616951496       -0.01440508855234
C           -0.67696569464159        8.62057657917011        0.04848864383264
C           -1.37274639392708        9.85051137838617       -0.01418864795795
N           -1.90019039396161       10.86817110895498       -0.06187124746062
H            3.35549608568827        6.04049784860852        0.30283207344013
H            4.62846832433011        3.92657396048749        0.31410676392724
H            2.20095609807187        0.34483912629781        1.33657500355327
H            3.40164897735022       -1.77817138564118        1.23561263354159
H            7.15472658881548       -3.84140544065020       -1.55750017273051
H            9.61312688350344       -3.89356898295588       -1.63863249372654
H           10.93506074209905       -2.34097805750484       -0.24450153072507
H            9.77726879625173       -0.74146926109714        1.23912316176561
H            7.31941235371641       -0.69645658781328        1.33205300364458
H            3.38669672529171       -2.69435385567775       -1.32821356657187
H            2.14328050941134       -4.81385271223514       -1.36332618076184
H            3.01453488985249       -6.78720941625561       -0.15778524701693
H            5.14113464893716       -6.61665051832014        1.08736065126060
H            6.37628447244631       -4.49220659910928        1.14259904909489
H            6.42265613811230        0.04460949223392       -1.18048312486546
H            5.21866237185040        2.16720586988551       -1.08532165656661
H            0.98623361872780        1.74104895216202        0.00347568253542
H           -0.96667941625562        1.74439215281382        0.06209493853422
H           -2.32583002596641        0.49643469897023        1.42643252127187
H           -3.54929824885860       -1.61682564003507        1.43750412848745
H           -7.44429291958125       -0.46647119723048        0.97725775179481
H           -9.88016678864539       -0.52214891631921        0.65014613790203
H          -10.91400593103859       -2.32206270807644       -0.68899647797399
H           -9.48641338883843       -4.06327431097440       -1.70541784440506
H           -7.04768447833537       -3.99934761243000       -1.39647341156133
H           -6.52669417337983       -4.26102265658457        1.42902166653814
H           -5.32055848080238       -6.37599175447902        1.77477247588406
H           -3.10206573148793       -6.72445197709921        0.74609043403014
H           -2.10668231317632       -4.94247399843766       -0.64582855356273
H           -3.31955159061860       -2.83425889846101       -1.00936520289726
H           -6.28191883575123       -0.04995903565486       -1.45499350822920
H           -5.05918536217021        2.06569011794574       -1.46371499511197
H           -4.59866659784383        3.95699970852163       -0.15154866024458
H           -3.31201340157034        6.06338206250881       -0.12844703528232
