34
 energy: -61.970531295362 gnorm: 0.000043355190 xtb: 6.7.1 (edcfbbe)
Br           6.61116185330347        0.43136839164076       -0.00093492834670
C            4.72383522573314        0.67681723668495        0.00181269614437
C            4.22597649555239        1.99419712435728        0.00436051029496
C            2.87947253572614        2.21164886178235        0.00615116294705
C            1.98526036196371        1.11829509016216        0.00546085803459
N            0.66377001514904        1.33481998665304        0.00661571743110
C           -0.13647662791453        0.28550709763176        0.00559066159071
C           -1.56657673396852        0.49535746228745        0.00636120626906
C           -2.06600400699924        1.80140424762113        0.01006018625567
C           -3.41867215567741        2.04376419564051        0.01112697268131
C           -4.28294217570688        0.95517394031431        0.00825522537244
Br          -6.16388947179408        1.26374212770812        0.01008788193582
C           -3.81925419312398       -0.34190862495000        0.00454049432973
C           -2.44553386061194       -0.60641313662862        0.00353564800201
C           -1.91697876013129       -1.96366941975910        0.00058543311951
C           -2.74206863355053       -3.09407202127266       -0.00343882076871
C           -2.21501823905070       -4.36754646049889       -0.00459200037320
C           -0.83843722696751       -4.56123640952218       -0.00159332641303
C           -0.00239523326924       -3.46896646358616        0.00144725728587
C           -0.52320504456746       -2.17202523209734        0.00214616350286
C            0.38380859470229       -1.04550378136203        0.00375630967418
N            1.68365492572487       -1.26973249435766        0.00269852478322
C            2.50492059312480       -0.21088296312368        0.00327532539058
C            3.90108118830580       -0.41250085226217        0.00139362262456
H            4.92127883539944        2.81970475460723        0.00457787975172
H            2.46921369881904        3.20908036993015        0.00788703633536
H           -1.35666346449723        2.61361348396680        0.01208190801560
H           -3.80722576840881        3.05004905865108        0.01409313771999
H           -4.53678635218493       -1.14566653525996        0.00280183856516
H           -3.81453443861890       -2.98582781963309       -0.00593440186273
H           -2.87900311819641       -5.21920367288290       -0.00772445305765
H           -0.43140865967193       -5.56093576125777       -0.00183572589333
H            1.07025057071210       -3.58083004095827        0.00332923242123
H            4.28067873525370       -1.42192793287726       -0.00045189777747
