34
 energy: -61.927410199612 gnorm: 0.000031131827 xtb: 6.7.1 (edcfbbe)
Br           6.63750128737852        0.41690566508598        0.00022927192625
C            4.75698038709221        0.70350902559609        0.00244081681503
C            4.26679450002170        1.99914146194482        0.00459805887198
C            2.89924850558569        2.20698968364180        0.00611160015431
C            2.00477634265932        1.14000975931611        0.00543878473113
N            0.68687080132405        1.29143990766209        0.00660607858413
C           -0.16240800748634        0.27491516934997        0.00547201508584
C           -1.57397417647335        0.47661851851085        0.00638337295006
C           -2.07320162449967        1.79122869200814        0.00952320109419
C           -3.42013118216625        2.03632111529394        0.01049662834676
C           -4.29580665378238        0.95006119283755        0.00821945745757
Br          -6.17367773966062        1.27736675055931        0.00953646558167
C           -3.84114570656279       -0.34632750953995        0.00511300252166
C           -2.46677025944555       -0.62138392869423        0.00414884550249
C           -1.94167807118770       -1.96666954066039        0.00128854816215
C           -2.75893826761677       -3.10690970442516       -0.00162305612314
C           -2.22400505781125       -4.37274070137063       -0.00367541653002
C           -0.84091254783566       -4.55522348690279       -0.00280431842603
C           -0.01234938006906       -3.46366303774462       -0.00037708037172
C           -0.54145630952427       -2.16181481391060        0.00147725130745
C            0.35813481745237       -1.05244250013364        0.00321569791329
N            1.66972254879609       -1.22067533962964        0.00243097871857
C            2.53470574226530       -0.21312593980892        0.00319766357722
C            3.91251163958000       -0.39448897750195        0.00177750110286
H            4.94443556288747        2.83784797084788        0.00505950004885
H            2.49786938883041        3.20776935782404        0.00778033257893
H           -1.36412292116307        2.60455138487565        0.01122567805950
H           -3.80418278422948        3.04428227323243        0.01299503260694
H           -4.56065595564834       -1.14834901031538        0.00354385281472
H           -3.83174515096529       -3.00220548629972       -0.00236972778459
H           -2.87845996745220       -5.23138468238022       -0.00594215316129
H           -0.42759233363060       -5.55234583704056       -0.00414885572440
H            1.06122924311335       -3.57421538416379        0.00013621963346
H            4.30363354261007       -1.39926317040569        0.00007521879618
