34
 energy: -61.927409745004 gnorm: 0.000034509755 xtb: 6.7.1 (edcfbbe)
Br           6.63528372781836        0.41890176193881        0.00039533533080
C            4.75469101949342        0.70493092703168        0.00736803657540
C            4.26412957733396        2.00038294836847        0.01554846684525
C            2.89651264305095        2.20783297126476        0.01971723316946
C            2.00234124656177        1.14061918948533        0.01576905513666
N            0.68438810359252        1.29165722599231        0.01799272517806
C           -0.16456411205565        0.27485241780503        0.01324504061813
C           -1.57619679345569        0.47608718841564        0.01228246920401
C           -2.07589080539574        1.79051921352595        0.01624731387987
C           -3.42289771232922        2.03515404158420        0.01286691469340
C           -4.29819474617424        0.94861021937661        0.00518971010482
Br          -6.17616161077181        1.27529766513880       -0.00151532887242
C           -3.84308274641917       -0.34761865985614        0.00209536481750
C           -2.46862220131852       -0.62221271688010        0.00600828549988
C           -1.94308748072063       -1.96732765059016        0.00342561031234
C           -2.75997099295050       -3.10784207764485        0.00061353655299
C           -2.22461565698688       -4.37348955944020       -0.00181990974235
C           -0.84145949540217       -4.55551094953435       -0.00162973045966
C           -0.01326171831915       -3.46368105080751        0.00120643080609
C           -0.54280609967409       -2.16201091857231        0.00394002400059
C            0.35640616305254       -1.05233835147067        0.00739013174539
N            1.66803018595498       -1.22016209832700        0.00524015339059
C            2.53269029926444       -0.21236668939190        0.00814183296123
C            3.91054167017415       -0.39331871097454        0.00393125589342
H            4.94149562916046        2.83930661853596        0.01840834440673
H            2.49491058110305        3.20850316830104        0.02577424014607
H           -1.36711159359727        2.60408787683491        0.02165299056737
H           -3.80729878015017        3.04298258127918        0.01564502007127
H           -4.56229331037032       -1.14988650705622       -0.00393211416373
H           -3.83281075874512       -3.00348428561646        0.00070523025659
H           -2.87877374650030       -5.23236091064339       -0.00381322866007
H           -0.42780924335607       -5.55249776678905       -0.00356002014690
H            1.06035501095921       -3.57387195357803        0.00165648245150
H            4.30199116303965       -1.39794491544331       -0.00218019257712
