34
 energy: -61.970531506075 gnorm: 0.000038753800 xtb: 6.7.1 (edcfbbe)
Br           6.74304873220491       -1.31943932482075       -0.00002045201156
C            5.03687512220111       -0.47608937881691       -0.00001627070711
C            4.99240417897576        0.93152502632097       -0.00001901261337
C            3.78885655391961        1.57326861784819       -0.00001615285812
C            2.58878357936688        0.82837593156612       -0.00001090378777
N            1.40858857140846        1.46112185103735       -0.00000746140598
C            0.31170189217688        0.72745128251774       -0.00000260520248
C           -0.97343312884829        1.38904879174929       -0.00000105680550
C           -1.02307745711275        2.78645004600179       -0.00000546648812
C           -2.22440489037007        3.45372867940378        0.00000179918171
C           -3.39458891961996        2.70361775591981        0.00001572597683
Br          -5.07428376424031        3.60458209023525        0.00000540666456
C           -3.37584864224108        1.32626576836370        0.00001149962103
C           -2.16177443524196        0.63121665212714        0.00000426983374
C           -2.10116094621026       -0.82408646189088        0.00000730291049
C           -3.24780614983967       -1.62644977195892        0.00001513205531
C           -3.16147526254138       -3.00197566936723        0.00001843798624
C           -1.92176674138255       -3.63093463652300        0.00001343174032
C           -0.77709652878301       -2.86819533479030        0.00000646899298
C           -0.84993354671361       -1.47249628635824        0.00000399559908
C            0.37298430023972       -0.70032256685385       -0.00000077347972
N            1.53019261124960       -1.33335446984641       -0.00000368839636
C            2.65006869396799       -0.59746997712865       -0.00000885415509
C            3.90572837887532       -1.24030742473973       -0.00001162046542
H            5.91755631542987        1.48741859654130       -0.00002175387740
H            3.72368751563139        2.64980671788886       -0.00001693344620
H           -0.08895961990830        3.32522027606683       -0.00000395164547
H           -2.26623004056844        4.53161429551009        0.00000198683659
H           -4.31497448538101        0.79814157871161        0.00001545111411
H           -4.22745177262185       -1.17680151567449        0.00001736110133
H           -4.06544280181199       -3.59277552393172        0.00002059185144
H           -1.86034543893753       -4.70856813483186        0.00001535213814
H            0.20155316513384       -3.32132531149971        0.00000525906249
H            3.93802396160488       -2.31826116876846       -0.00001051531896
