  89
  -138.960753835900       0.214508443995610      !
 C         -0.3173657102        2.7168158352       -2.2252938570
 C          0.1919429027        3.8019632721       -1.6576213690
 C          1.5630251684        3.9073114923       -1.1699298479
 C          1.8625507219        4.7613628928       -0.1091171464
 C          3.1371743111        4.8162688858        0.4198108266
 C          4.1585040420        4.0470468425       -0.1246894920
 C          5.5358529591        4.0582328841        0.4976294301
 O          6.2569713886        2.8506733373        0.3234080340
 C          5.6358382164        1.6760053698        0.5844220273
 C          4.4512269569        1.5702475432        1.3322143875
 C          3.7868878640        0.3674157933        1.4359648055
 C          4.3183242966       -0.7408459603        0.7907727291
 C          5.5907571438       -0.6799381015        0.1589226973
 C          6.2427954785        0.5344117584        0.0483699707
 C          5.8715593072       -2.0108391829       -0.2988116164
 C          6.9436707881       -2.5915760142       -0.9635669931
 C          6.8728238238       -3.9359019695       -1.2884491976
 C          5.7499868189       -4.6957713610       -0.9757767991
 C          4.6669344518       -4.1385131773       -0.3099780508
 C          4.7436123884       -2.8022193839        0.0409096885
 N          3.8153291304       -2.0111859997        0.6951664415
 C          2.5040647191       -2.3690357708        1.0258485163
 C          2.2352579178       -3.4803242540        1.7926861600
 C          0.9215816689       -3.8213951125        2.1208646549
 C         -0.1325763202       -3.0144371435        1.6871167952
 C          0.1024342301       -1.8939746612        0.9204873378
 N         -0.9575067014       -1.0822423293        0.5009425296
 C         -1.0564832125        0.2862275806        0.6801681215
 C         -0.1945860233        1.1575672621        1.3227474109
 C         -0.5618431288        2.4905887221        1.4100749840
 C         -1.7643934518        2.9429856443        0.8781370285
 C         -2.6377793130        2.0766343563        0.2439159124
 C         -2.2887423284        0.7369913283        0.1430359202
 C         -2.9444288363       -0.4175608716       -0.3959842594
 C         -4.1518040566       -0.5986674172       -1.0557983845
 C         -4.4892076125       -1.8824742527       -1.4733481236
 O         -5.6283466400       -2.2067264221       -2.1327704607
 C         -6.5412338709       -1.1825492187       -2.4697189740
 C         -7.2062017475       -0.5295961734       -1.2828723232
 C         -7.6278220703        0.7934952386       -1.3510376913
 C         -8.2544960263        1.3827573814       -0.2731484475
 C         -8.4785223187        0.6751114635        0.9116717555
 C         -9.1471939377        1.3442109391        2.0163752689
 C         -9.4829245159        0.8099324913        3.1870691435
 C         -8.0449687401       -0.6520490182        0.9693526777
 C         -7.4246261139       -1.2436904217       -0.1106854856
 C         -3.6179050081       -2.9654323176       -1.2380918685
 C         -2.4181092546       -2.7979975802       -0.5837220214
 C         -2.0839335198       -1.5201887990       -0.1477372684
 C          1.4356532164       -1.5494650807        0.5268465040
 C          1.6626801083       -0.5575197358       -0.4109658435
 N          1.8403501727        0.2654597953       -1.2089293123
 C          3.8811023882        3.2487487264       -1.2275065177
 C          2.6005607221        3.1673732741       -1.7341217754
 H          0.2621174549        1.8174986275       -2.3434811313
 H         -1.3421369673        2.6785897178       -2.5546098778
 H         -0.4299355836        4.6744563438       -1.4950973808
 H          1.0776646748        5.3646201158        0.3256457057
 H          3.3431131877        5.4573774756        1.2667346510
 H          5.4626181282        4.3059660389        1.5662925731
 H          6.1678289723        4.8154271673        0.0189601254
 H          4.0371230137        2.4372694101        1.8182513375
 H          2.8759320563        0.2949703859        2.0082220654
 H          7.1795202109        0.6332391850       -0.4757306489
 H          7.8102203319       -2.0031154868       -1.2224515087
 H          7.6988160754       -4.4035786539       -1.8033763925
 H          5.7172051857       -5.7368973419       -1.2585612704
 H          3.7920104016       -4.7282171634       -0.0833564033
 H          3.0564129654       -4.0694561904        2.1735975680
 H          0.7243147418       -4.6833227475        2.7360014782
 H         -1.1449742606       -3.2446212267        1.9851418704
 H          0.7330207083        0.8160962092        1.7516762870
 H          0.0992049619        3.1864128333        1.9029837016
 H         -2.0226865829        3.9873971269        0.9688206468
 H         -3.5760046951        2.4292243943       -0.1568902408
 H         -4.8008676072        0.2446035576       -1.2233753130
 H         -7.2971603840       -1.6900265270       -3.0809797124
 H         -6.0492308043       -0.4245184102       -3.0949928235
 H         -7.4635995271        1.3614488298       -2.2566886691
 H         -8.5782895724        2.4117008550       -0.3434228763
 H         -9.3895330313        2.3837521149        1.8303709010
 H         -9.9820102669        1.3907328479        3.9434641007
 H         -9.2806451105       -0.2163043331        3.4399609731
 H         -8.1957102055       -1.2287653515        1.8681359130
 H         -7.0975566181       -2.2716298477       -0.0501063080
 H         -3.9195306954       -3.9353895691       -1.5988936534
 H         -1.7540404295       -3.6336104017       -0.4264480385
 H          4.6703015037        2.6686494935       -1.6825397165
 H          2.4024039055        2.5228128068       -2.5735313775
  89
  -138.960730629900       0.209305024226761      !
 C         -0.2476077954        2.8742806544       -2.1512791228
 C          0.2785158981        3.9449043814       -1.5715876403
 C          1.6475485129        4.0162847641       -1.0711916846
 C          1.9546952049        4.8418563933        0.0097053395
 C          3.2268554769        4.8635782467        0.5471462055
 C          4.2387581649        4.0910444760       -0.0097319677
 C          5.6114286569        4.0634547824        0.6224073938
 O          6.3178918524        2.8533723021        0.4117523400
 C          5.6784162773        1.6786216332        0.6261274903
 C          4.4876371674        1.5617993712        1.3623091907
 C          3.8085608367        0.3639377157        1.4227662328
 C          4.3330108999       -0.7295033180        0.7473242975
 C          5.6061228806       -0.6599818299        0.1174746099
 C          6.2723933716        0.5497898920        0.0505691487
 C          5.8763035825       -1.9778937594       -0.3822335361
 C          6.9413796409       -2.5461022194       -1.0687839986
 C          6.8593686520       -3.8796542444       -1.4331296546
 C          5.7328588000       -4.6410975210       -1.1375362591
 C          4.6568722906       -4.0965791500       -0.4504301878
 C          4.7446444408       -2.7714826383       -0.0613302785
 N          3.8240707991       -1.9942297483        0.6184595906
 C          2.5221800023       -2.3688803972        0.9683235703
 C          2.2851371121       -3.4918128197        1.7283551531
 C          0.9833990767       -3.8530891889        2.0825084872
 C         -0.0892373930       -3.0587441601        1.6738312194
 C          0.1133655587       -1.9300150430        0.9088866915
 N         -0.9703358254       -1.1441806184        0.5040000358
 C         -1.0927836923        0.2251194802        0.6622638510
 C         -0.2398044135        1.1230667620        1.2803786098
 C         -0.6307980052        2.4504239065        1.3490080722
 C         -1.8473051925        2.8717581944        0.8227344699
 C         -2.7131253984        1.9783421603        0.2163798794
 C         -2.3413740303        0.6433423905        0.1360541767
 C         -2.9853983913       -0.5329151791       -0.3689929240
 C         -4.2028622293       -0.7483510203       -0.9995701241
 C         -4.5278272709       -2.0466419854       -1.3806091761
 O         -5.6768254502       -2.4053395602       -2.0039578255
 C         -6.6083883645       -1.4037425315       -2.3571512096
 C         -7.2575882144       -0.7150263203       -1.1818210029
 C         -7.6984303928        0.5995347192       -1.2934584748
 C         -8.3107869852        1.2299686493       -0.2311706377
 C         -8.4981105860        0.5687420143        0.9859434917
 C         -9.1372094530        1.1867196528        2.1368433428
 C         -9.6621485351        2.4072383463        2.1991278101
 C         -8.0458487807       -0.7500360735        1.0870588823
 C         -7.4416173565       -1.3842079363        0.0216912041
 C         -3.6321165837       -3.1090194519       -1.1432614461
 C         -2.4208350049       -2.9066361290       -0.5206581301
 C         -2.1005178939       -1.6150215823       -0.1160141581
 C          1.4350511496       -1.5579134175        0.4988310567
 C          1.6388060069       -0.5461709727       -0.4232837030
 N          1.8030305360        0.2953013915       -1.2049022973
 C          3.9549273474        3.3221548275       -1.1317850613
 C          2.6756175584        3.2710003850       -1.6452869456
 H          0.3145877132        1.9640152366       -2.2697859930
 H         -1.2699701374        2.8590372391       -2.4895663725
 H         -0.3254454394        4.8298823240       -1.4084532450
 H          1.1772892631        5.4481991846        0.4537793663
 H          3.4379495767        5.4808982277        1.4102298547
 H          5.5327627679        4.2751048479        1.6984919023
 H          6.2566145868        4.8287625209        0.1753071563
 H          4.0805349913        2.4170430487        1.8746532485
 H          2.8922444773        0.2845360831        1.9856050049
 H          7.2117609834        0.6556610042       -0.4675506038
 H          7.8112128206       -1.9565250030       -1.3139630549
 H          7.6795091051       -4.3376353261       -1.9656885348
 H          5.6915696851       -5.6730552009       -1.4511039420
 H          3.7784579809       -4.6859670110       -0.2364943229
 H          3.1226780083       -4.0736365557        2.0841513143
 H          0.8107518893       -4.7217750789        2.6954602250
 H         -1.0923129417       -3.3055158218        1.9896054725
 H          0.6990342493        0.8068049341        1.7045178153
 H          0.0235983556        3.1670182774        1.8205412179
 H         -2.1219160185        3.9134043753        0.8949506643
 H         -3.6625177371        2.3064648475       -0.1791968711
 H         -4.8698082091        0.0800659939       -1.1711542046
 H         -7.3703245442       -1.9408437690       -2.9347591437
 H         -6.1374136521       -0.6629416246       -3.0183622071
 H         -7.5580007698        1.1308211162       -2.2251725002
 H         -8.6413162759        2.2504622103       -0.3458800735
 H         -9.1791133450        0.5568101975        3.0175086139
 H        -10.1182366140        2.7731247660        3.1027547327
 H         -9.6628895476        3.0868016322        1.3645510434
 H         -8.1781673792       -1.2841140424        2.0174397696
 H         -7.1025186021       -2.4054316536        0.1183221752
 H         -3.9242336782       -4.0915959558       -1.4766121121
 H         -1.7382548631       -3.7273616847       -0.3643393984
 H          4.7376544749        2.7413542787       -1.5970229610
 H          2.4710608887        2.6478391996       -2.4994993931
  89
  -138.960683789300       0.199183428764203      !
 C         -0.3201391373        2.9532178675       -1.9574168505
 C          0.2612684575        4.0083810428       -1.4026598677
 C          1.6612258971        4.0546771180       -0.9941616236
 C          2.0539632023        4.8781990416        0.0603183890
 C          3.3594543583        4.8798906330        0.5112158491
 C          4.3182978363        4.0871815504       -0.1078319396
 C          5.7288145921        4.0380334028        0.4325816960
 O          6.3985863390        2.8136058559        0.1881542661
 C          5.7574800991        1.6511472503        0.4542068362
 C          4.6045309231        1.5592886927        1.2522015512
 C          3.9149369534        0.3708766910        1.3635568812
 C          4.3936066159       -0.7392460264        0.6812043219
 C          5.6355444254       -0.6946310881       -0.0115864650
 C          6.3095607044        0.5067463760       -0.1326818682
 C          5.8685837248       -2.0234496335       -0.4992379520
 C          6.8939602802       -2.6146287393       -1.2262948431
 C          6.7813089403       -3.9531307400       -1.5633743127
 C          5.6629624065       -4.6974209753       -1.2011585868
 C          4.6263701231       -4.1295589982       -0.4724957126
 C          4.7457486263       -2.7995738696       -0.1107046717
 N          3.8660574433       -2.0000010137        0.5986260255
 C          2.5777274810       -2.3547900809        1.0098845080
 C          2.3601680589       -3.4728280369        1.7842313105
 C          1.0714572379       -3.8248781305        2.1872810915
 C         -0.0123120966       -3.0282388808        1.8093651503
 C          0.1715757431       -1.9032413360        1.0360936904
 N         -0.9227867254       -1.1162026267        0.6579899660
 C         -1.0514480338        0.2485672933        0.8369261831
 C         -0.1928383139        1.1422152541        1.4539700408
 C         -0.5884448072        2.4666887208        1.5434577338
 C         -1.8145326391        2.8882253120        1.0399039337
 C         -2.6835655782        1.9991474105        0.4314448613
 C         -2.3065397390        0.6673919211        0.3269652988
 C         -2.9440481860       -0.5041407736       -0.1996437197
 C         -4.1536379735       -0.7171430243       -0.8471092470
 C         -4.4561689911       -2.0079431653       -1.2700145637
 O         -5.5825950816       -2.3598583954       -1.9380536677
 C         -6.4771868833       -1.3514536766       -2.3573849902
 C         -7.2541915357       -0.6967160211       -1.2417052545
 C         -7.7520583251        0.5923399780       -1.4004428926
 C         -8.5032719824        1.1843558350       -0.4073599131
 C         -8.7774892238        0.5088077435        0.7849687473
 C         -9.5775225112        1.0818929085        1.8563668898
 C        -10.2581086516        2.2237501137        1.8179775728
 C         -8.2559814774       -0.7784571656        0.9398105840
 C         -7.5138415491       -1.3755656216       -0.0580579416
 C         -3.5581530730       -3.0691892032       -1.0386176857
 C         -2.3574086143       -2.8706495560       -0.3954412829
 C         -2.0507968517       -1.5834482896        0.0325001526
 C          1.4785801309       -1.5353667795        0.5820431515
 C          1.6487092371       -0.5201212324       -0.3431408020
 N          1.7752584100        0.3285693136       -1.1242783350
 C          3.9469057878        3.3181810744       -1.2039947411
 C          2.6356900563        3.2885690748       -1.6313758544
 H          0.2165161920        2.0348023934       -2.1221328636
 H         -1.3624781209        2.9592046069       -2.2282218976
 H         -0.3164483944        4.9005576638       -1.1907179878
 H          1.3185290989        5.4989274821        0.5533355276
 H          3.6384655567        5.4968479690        1.3550671227
 H          5.7248529792        4.2596670513        1.5095093192
 H          6.3571620741        4.7872018073       -0.0632968894
 H          4.2336308892        2.4264754019        1.7716834838
 H          3.0252565323        0.3123699821        1.9699720014
 H          7.2232672179        0.5936068887       -0.6979568990
 H          7.7560952176       -2.0381477934       -1.5240892463
 H          7.5696156114       -4.4281950984       -2.1281775590
 H          5.5957552195       -5.7337513232       -1.4951062271
 H          3.7538390495       -4.7066678227       -0.2073286286
 H          3.2066157215       -4.0591959844        2.1104841732
 H          0.9156536959       -4.6899431480        2.8097625407
 H         -1.0065595557       -3.2723081743        2.1538678738
 H          0.7534151521        0.8229319151        1.8597262237
 H          0.0687438435        3.1813557186        2.0142515683
 H         -2.0935591078        3.9272403838        1.1306531321
 H         -3.6390121081        2.3289676735        0.0520730665
 H         -4.8308224994        0.1061953173       -1.0053072495
 H         -7.1740354436       -1.8739595292       -3.0242476559
 H         -5.9454924589       -0.5918874327       -2.9473407714
 H         -7.5472711481        1.1331435250       -2.3144266139
 H         -8.8758806080        2.1857568408       -0.5563704434
 H         -9.6141536144        0.4831089521        2.7586873988
 H        -10.8295374901        2.5622579731        2.6650105874
 H        -10.2810446495        2.8609623022        0.9507542044
 H         -8.4507352269       -1.3210380235        1.8541266687
 H         -7.1289567894       -2.3761831008        0.0751205176
 H         -3.8384255184       -4.0464638333       -1.3967758900
 H         -1.6706720730       -3.6885951554       -0.2427369218
 H          4.6868025169        2.7220562101       -1.7175122541
 H          2.3646694508        2.6680372615       -2.4688226164
  89
  -138.960646614600       0.191500051391655      !
 C         -0.2630838369        2.8558024348       -2.1088435545
 C          0.2770894067        3.9252931676       -1.5397489404
 C          1.6596185759        4.0001567058       -1.0792043336
 C          1.9953534403        4.8358999480       -0.0145990908
 C          3.2804679503        4.8599775223        0.4907568649
 C          4.2761772188        4.0776303695       -0.0817885862
 C          5.6618561709        4.0496881842        0.5207663676
 O          6.3546044722        2.8294157745        0.3220932446
 C          5.7114741915        1.6631547769        0.5666363200
 C          4.5230728685        1.5673963466        1.3100647233
 C          3.8368169004        0.3752024791        1.3947761911
 C          4.3533605633       -0.7344691860        0.7397895805
 C          5.6283435193       -0.6861179683        0.1114602925
 C          6.3001729164        0.5186893858        0.0167028989
 C          5.8933719781       -2.0169529762       -0.3553168086
 C          6.9595809007       -2.6067745370       -1.0215762285
 C          6.8734018091       -3.9484239021       -1.3538271191
 C          5.7408844248       -4.6964716493       -1.0476269279
 C          4.6630735907       -4.1297261510       -0.3814061721
 C          4.7551914623       -2.7964226052       -0.0224489020
 N          3.8354327980       -1.9979075100        0.6345841076
 C          2.5274331101       -2.3536697298        0.9794773457
 C          2.2712539172       -3.4707667075        1.7423927690
 C          0.9628993765       -3.8190977758        2.0837546917
 C         -0.0981271151       -3.0158130588        1.6618576200
 C          0.1236865077       -1.8894462123        0.8992211919
 N         -0.9497029809       -1.0904022685        0.4907421336
 C         -1.0743544619        0.2746037576        0.6795231760
 C         -0.2166700719        1.1616323254        1.3066178403
 C         -0.6103591981        2.4860830689        1.4078040140
 C         -1.8339304817        2.9147211473        0.9042030918
 C         -2.7025882181        2.0325940961        0.2856304012
 C         -2.3280056605        0.7006730774        0.1715485109
 C         -2.9705369550       -0.4650953216       -0.3594481465
 C         -4.1892433955       -0.6715261943       -0.9915345323
 C         -4.5034672798       -1.9599698326       -1.4127240322
 O         -5.6477204609       -2.3083986761       -2.0511242538
 C         -6.5883204753       -1.3059918456       -2.3727467832
 C         -7.2725102555       -0.6868364759       -1.1783645337
 C         -7.4226016486       -1.3981995157        0.0051867259
 C         -8.0684717815       -0.8299109669        1.0835253836
 C         -8.6011933275        0.4601057788        1.0130123938
 C         -9.2910689091        1.0050812419        2.1720695681
 C         -9.9776218236        2.1429580632        2.2281578601
 C         -8.4421328912        1.1666474816       -0.1822642240
 C         -7.7859946335        0.6036030315       -1.2563304165
 C         -3.6011256434       -3.0232738525       -1.2063947544
 C         -2.3922530289       -2.8314598999       -0.5762787675
 C         -2.0797655186       -1.5491849920       -0.1375130542
 C          1.4520576943       -1.5324256496        0.4988240723
 C          1.6676119701       -0.5268719409       -0.4270542639
 N          1.8371650366        0.3087828452       -1.2137327928
 C          3.9635336494        3.2993253001       -1.1897042165
 C          2.6722623074        3.2482079786       -1.6724925540
 H          0.2984017446        1.9480903179       -2.2505894404
 H         -1.2945985875        2.8398626919       -2.4183193184
 H         -0.3252342532        4.8073063780       -1.3548115749
 H          1.2304425472        5.4479662463        0.4432044788
 H          3.5141072955        5.4852571919        1.3422851167
 H          5.6080706503        4.2842920327        1.5935973429
 H          6.3041576156        4.7992629575        0.0437312001
 H          4.1231496125        2.4345470164        1.8076818765
 H          2.9214104299        0.3123026536        1.9610429439
 H          7.2401071691        0.6085524175       -0.5033121802
 H          7.8337324447       -2.0274567438       -1.2756232643
 H          7.6946510958       -4.4233178992       -1.8696100313
 H          5.6961281491       -5.7357154893       -1.3357747437
 H          3.7805455758       -4.7100373752       -0.1601187647
 H          3.0991782980       -4.0588164303        2.1101444455
 H          0.7759097274       -4.6844065282        2.6972640087
 H         -1.1072340456       -3.2529747651        1.9658009955
 H          0.7282716592        0.8383184453        1.7114347863
 H          0.0466723889        3.1946222610        1.8878654072
 H         -2.1115968264        3.9533525865        1.0036730295
 H         -3.6565934549        2.3670311321       -0.0932366542
 H         -4.8648562568        0.1554024042       -1.1357326141
 H         -7.3313457458       -1.8256238552       -2.9898409236
 H         -6.1193467467       -0.5260287399       -2.9888714767
 H         -7.0253956298       -2.4001705343        0.0769353317
 H         -8.1739272414       -1.3961126750        1.9980735929
 H         -9.2331333664        0.3869446431        3.0602200040
 H        -10.4618224415        2.4588054345        3.1362009610
 H        -10.0908092476        2.7994981598        1.3827702796
 H         -8.8283026017        2.1701817227       -0.2689373166
 H         -7.6689867215        1.1685277375       -2.1713228545
 H         -3.8869170014       -3.9970704490       -1.5695856440
 H         -1.7042724507       -3.6514028307       -0.4404634055
 H          4.7332366777        2.7107023846       -1.6668838203
 H          2.4457917248        2.6179611481       -2.5157897087
  89
  -138.960616547600       0.185503051621770      !
 C         -0.3627845654        2.7435095952       -2.1325417950
 C          0.1517009539        3.8230944242       -1.5589302365
 C          1.5307442629        3.9277692412       -1.0939408551
 C          1.8446908408        4.7657417231       -0.0245297784
 C          3.1282539598        4.8187424805        0.4824837036
 C          4.1433868411        4.0636612304       -0.0925335455
 C          5.5304328856        4.0699952924        0.5078290158
 O          6.2515928921        2.8661425614        0.3094678776
 C          5.6388336096        1.6862358977        0.5645266189
 C          4.4557440639        1.5667270340        1.3131894137
 C          3.7985003241        0.3592462242        1.4066640359
 C          4.3370622277       -0.7412726008        0.7541233291
 C          5.6109058684       -0.6678327536        0.1256362921
 C          6.2538863422        0.5520362949        0.0220134362
 C          5.9048082288       -1.9949347758       -0.3339671338
 C          6.9858126240       -2.5653518905       -0.9933100899
 C          6.9281138564       -3.9093740566       -1.3215631622
 C          5.8090720169       -4.6788417810       -1.0186975434
 C          4.7172957958       -4.1319637503       -0.3585046575
 C          4.7814399606       -2.7965349971       -0.0022326422
 N          3.8435867456       -2.0147268777        0.6504465647
 C          2.5374893848       -2.3880953410        0.9815869951
 C          2.2828358289       -3.5138243572        1.7329453350
 C          0.9748249246       -3.8745301974        2.0603329224
 C         -0.0900478666       -3.0717866840        1.6438947577
 C          0.1302697697       -1.9365130988        0.8952900390
 N         -0.9404235496       -1.1270741799        0.4982394530
 C         -1.0530170963        0.2357871726        0.7082212131
 C         -0.1929751860        1.1033301181        1.3586126251
 C         -0.5733857310        2.4299869556        1.4777667315
 C         -1.7874825866        2.8798125297        0.9702526950
 C         -2.6591820427        2.0169383647        0.3291030792
 C         -2.2965895286        0.6837733988        0.1955991564
 C         -2.9452193920       -0.4665156540       -0.3613210275
 C         -4.1578758642       -0.6471376464       -1.0115294209
 C         -4.4842716229       -1.9248415421       -1.4555104539
 O         -5.6257721398       -2.2474184098       -2.1117138117
 C         -6.5515669777       -1.2258850337       -2.4215458687
 C         -7.2199326977       -0.6103761698       -1.2167961558
 C         -7.4481635277       -1.3639001709       -0.0720269816
 C         -8.0716581457       -0.8004019366        1.0214181328
 C         -8.5002337700        0.5300233644        1.0072373563
 C         -9.1642813990        1.0706917971        2.1826897360
 C         -9.6951274539        2.2833546026        2.3127922092
 C         -8.2662616482        1.2774057760       -0.1504949304
 C         -7.6344146384        0.7170858335       -1.2404780439
 C         -3.5977152322       -3.0022978480       -1.2543803501
 C         -2.3932158397       -2.8354224639       -0.6088042139
 C         -2.0691684003       -1.5638689601       -0.1474754019
 C          1.4576220971       -1.5723631406        0.5000315558
 C          1.6667713858       -0.5640217912       -0.4244315986
 N          1.8250656257        0.2723115405       -1.2126976900
 C          3.8506291451        3.2819586342       -1.2033106912
 C          2.5617028544        3.2025698595       -1.6886028892
 H          0.2187124682        1.8488299278       -2.2740801608
 H         -1.3926360257        2.7056418196       -2.4455216819
 H         -0.4709786685        4.6904400874       -1.3731767788
 H          1.0644617095        5.3566874998        0.4349558638
 H          3.3459735637        5.4463989175        1.3364978834
 H          5.4732509726        4.3050032159        1.5803745767
 H          6.1536466747        4.8338716550        0.0281167566
 H          4.0366245033        2.4267159085        1.8073064392
 H          2.8878266765        0.2777621717        1.9779834942
 H          7.1915615584        0.6599088723       -0.4985500059
 H          7.8488309264       -1.9688925470       -1.2460463510
 H          7.7608622795       -4.3691254345       -1.8325982786
 H          5.7860219615       -5.7192912396       -1.3046306564
 H          3.8455979524       -4.7294712584       -0.1400695066
 H          3.1117854172       -4.0987663231        2.1033969169
 H          0.7892383073       -4.7482124566        2.6623680189
 H         -1.0986674083       -3.3175289754        1.9423555050
 H          0.7431852930        0.7629535322        1.7694630081
 H          0.0866275833        3.1230742658        1.9760597529
 H         -2.0554876380        3.9194314698        1.0847207725
 H         -3.6061746738        2.3672895152       -0.0528663639
 H         -4.8190804652        0.1916531771       -1.1520331517
 H         -7.3035231432       -1.7277810306       -3.0423411345
 H         -6.0704735420       -0.4473432861       -3.0298468648
 H         -7.1276462508       -2.3952706419       -0.0437884667
 H         -8.2390032048       -1.3999246728        1.9050680232
 H         -9.2228474612        0.3846242780        3.0192404816
 H        -10.1701339193        2.5892648795        3.2289374525
 H         -9.6813777871        3.0153142574        1.5236809861
 H         -8.5752714365        2.3099084023       -0.1960142080
 H         -7.4590521595        1.3141852146       -2.1252233223
 H         -3.8915569364       -3.9672214826       -1.6345241938
 H         -1.7174788409       -3.6662436571       -0.4777581584
 H          4.6349997675        2.7142156856       -1.6818973331
 H          2.3515776728        2.5711977537       -2.5351633642
