  89
  -139.564516610000       0.212683258732367      !
 C         -0.2384800517        2.8057230424       -2.2409476208
 C          0.2917185954        3.8922532646       -1.6955807797
 C          1.6612413775        3.9745415574       -1.1982101352
 C          1.9718425995        4.8327615487       -0.1440605682
 C          3.2443359271        4.8669316801        0.3919426169
 C          4.2532211971        4.0735910466       -0.1406265597
 C          5.6260959448        4.0611097251        0.4915480894
 O          6.3281636224        2.8424694071        0.3189730079
 C          5.6846352894        1.6773621066        0.5706098754
 C          4.4938118285        1.5880991093        1.3105675955
 C          3.8105254353        0.3951692600        1.4091086629
 C          4.3307659044       -0.7209293654        0.7683616897
 C          5.6038063966       -0.6758757695        0.1361464885
 C          6.2743260600        0.5287998885        0.0307886833
 C          5.8690702099       -2.0098738320       -0.3217639561
 C          6.9317886999       -2.6032795229       -0.9904182007
 C          6.8448742121       -3.9473793620       -1.3124058669
 C          5.7158190338       -4.6950893560       -0.9924684750
 C          4.6421064997       -4.1253054065       -0.3225060707
 C          4.7347643236       -2.7888950140        0.0244885194
 N          3.8172846652       -1.9872782485        0.6797241934
 C          2.5142467868       -2.3460523931        1.0417476186
 C          2.2736004318       -3.4435552679        1.8369779852
 C          0.9707648089       -3.7888268890        2.2028658905
 C         -0.0992512888       -3.0039834020        1.7696957372
 C          0.1069734709       -1.9007195251        0.9693847520
 N         -0.9741357606       -1.1242231908        0.5402764799
 C         -1.0916534818        0.2498212923        0.6552330764
 C         -0.2351942578        1.1638140783        1.2443371510
 C         -0.6214486620        2.4940593839        1.2711316116
 C         -1.8367139831        2.9028762556        0.7322668902
 C         -2.7059922156        1.9938297425        0.1547787778
 C         -2.3390127409        0.6556444955        0.1165427547
 C         -2.9874488725       -0.5336878797       -0.3508338664
 C         -4.2059782522       -0.7646118528       -0.9738255785
 C         -4.5357285126       -2.0731318572       -1.3135204878
 O         -5.6862967068       -2.4472601894       -1.9247856728
 C         -6.6144785607       -1.4540179112       -2.3091030682
 C         -7.2606562253       -0.7261982609       -1.1558795244
 C         -7.6968928629        0.5857379372       -1.3088386241
 C         -8.3064895821        1.2516013845       -0.2667730336
 C         -8.4955563773        0.6298386053        0.9707011647
 C         -9.1318957678        1.2861474885        2.1017383086
 C         -9.6524764631        2.5098842923        2.1256182311
 C         -8.0479203004       -0.6866856439        1.1132723801
 C         -7.4464634554       -1.3563535621        0.0682497017
 C         -3.6436709621       -3.1306572533       -1.0430563965
 C         -2.4313739687       -2.9130091972       -0.4276197345
 C         -2.1062836590       -1.6103997418       -0.0641189364
 C          1.4297673922       -1.5464656929        0.5472727898
 C          1.6366522833       -0.5651002935       -0.4064331613
 N          1.8034728919        0.2506616974       -1.2143170152
 C          3.9661162955        3.2706408251       -1.2377118283
 C          2.6863809839        3.2078349388       -1.7488551071
 H          0.3204284451        1.8901733391       -2.3308410698
 H         -1.2610561801        2.7834332111       -2.5781962062
 H         -0.3090231178        4.7840871529       -1.5602670821
 H          1.1968082860        5.4555963635        0.2809240509
 H          3.4580402296        5.5104636827        1.2350055422
 H          5.5487095092        4.3069388659        1.5604359764
 H          6.2737694845        4.8096063214        0.0202400452
 H          4.0899943544        2.4605492636        1.7957815064
 H          2.8942103298        0.3368537731        1.9745232936
 H          7.2138080402        0.6149026831       -0.4907745421
 H          7.8035846974       -2.0248425090       -1.2544374874
 H          7.6631249189       -4.4248757984       -1.8305360910
 H          5.6707197000       -5.7362875555       -1.2732504102
 H          3.7617147373       -4.7045099834       -0.0897170950
 H          3.1092494430       -4.0168198966        2.2106662462
 H          0.7953422513       -4.6370888776        2.8430303887
 H         -1.1030395043       -3.2370833833        2.0934916690
 H          0.7027263822        0.8577765070        1.6779032040
 H          0.0357142984        3.2228650586        1.7195340302
 H         -2.1075969021        3.9472544991        0.7716315850
 H         -3.6544103972        2.3126623399       -0.2506099293
 H         -4.8700691689        0.0603360003       -1.1712517170
 H         -7.3785968433       -2.0063909009       -2.8691590807
 H         -6.1412072211       -0.7361624152       -2.9935743040
 H         -7.5550398189        1.0868121842       -2.2569309469
 H         -8.6334574554        2.2691293945       -0.4135508706
 H         -9.1755982394        0.6845363862        3.0018868259
 H        -10.1068209893        2.9057642234        3.0174034938
 H         -9.6512200358        3.1627322771        1.2699821412
 H         -8.1816729180       -1.1906210303        2.0601173766
 H         -7.1109376486       -2.3752131534        0.1969779297
 H         -3.9394314351       -4.1222322744       -1.3450768753
 H         -1.7516292436       -3.7308075047       -0.2457003272
 H          4.7465518539        2.6726475882       -1.6846589893
 H          2.4791977353        2.5587217804       -2.5828691409
  89
  -139.564513230000       0.211923913607876      !
 C         -0.3532600720        2.6782270212       -2.2155133472
 C          0.1655446785        3.7729212569       -1.6754067525
 C          1.5451640516        3.8865577634       -1.2142456960
 C          1.8627183404        4.7557104747       -0.1711094522
 C          3.1466796293        4.8193480694        0.3336674260
 C          4.1587107079        4.0431495536       -0.2182349728
 C          5.5460154784        4.0626103458        0.3812471422
 O          6.2625296156        2.8505136840        0.2196628991
 C          5.6454097254        1.6813135131        0.5109404922
 C          4.4621813781        1.5892983634        1.2632589835
 C          3.8004070261        0.3877543840        1.3938863817
 C          4.3345305834       -0.7342825092        0.7752223226
 C          5.6083868766       -0.6849763103        0.1444085380
 C          6.2559408502        0.5286931821        0.0032621742
 C          5.8970731224       -2.0266464378       -0.2743935682
 C          6.9756402930       -2.6211032656       -0.9162605789
 C          6.9127174333       -3.9743247036       -1.2031530038
 C          5.7908927458       -4.7298935793       -0.8765219502
 C          4.7014650166       -4.1588976485       -0.2330808777
 C          4.7708121028       -2.8134313606        0.0820788077
 N          3.8361930283       -2.0084322893        0.7107650701
 C          2.5288259852       -2.3665138102        1.0535731050
 C          2.2702167958       -3.4677131745        1.8391524158
 C          0.9609826542       -3.8132458494        2.1778218628
 C         -0.1010117150       -3.0196022336        1.7372884070
 C          0.1232990780       -1.9086480468        0.9541789243
 N         -0.9444825119       -1.1076959736        0.5328204453
 C         -1.0518276004        0.2613780470        0.7009693988
 C         -0.1882407962        1.1451719108        1.3242174045
 C         -0.5635751044        2.4762925122        1.4027689793
 C         -1.7761663157        2.9149622583        0.8820616458
 C         -2.6513891291        2.0361624448        0.2679114110
 C         -2.2939032242        0.6981647446        0.1752214061
 C         -2.9471123412       -0.4661789586       -0.3459957139
 C         -4.1607092686       -0.6620344937       -0.9900097555
 C         -4.4921231687       -1.9514951906       -1.3945298812
 O         -5.6351047748       -2.2896918962       -2.0402063861
 C         -6.5571500349       -1.2746240568       -2.3809295049
 C         -7.2226883422       -0.6199502237       -1.1954141310
 C         -7.4533048064       -1.3371662782       -0.0280232916
 C         -8.0742147193       -0.7380596606        1.0478206366
 C         -8.4977538514        0.5929244790        0.9929985127
 C         -9.1592695133        1.1718793471        2.1515226576
 C         -9.6854655433        2.3899672013        2.2445548286
 C         -8.2614246849        1.3035828080       -0.1871628047
 C         -7.6321489909        0.7077273351       -1.2596461966
 C         -3.6095722103       -3.0256414438       -1.1607323703
 C         -2.4041862593       -2.8436369343       -0.5209247462
 C         -2.0751368833       -1.5597831502       -0.0988758180
 C          1.4518598729       -1.5618262800        0.5475592763
 C          1.6644499197       -0.5830905942       -0.4074327419
 N          1.8255893180        0.2280860567       -1.2210054026
 C          3.8625414098        3.2288917385       -1.3044485072
 C          2.5731258969        3.1395647353       -1.7867040405
 H          0.2247863099        1.7774278158       -2.3297358858
 H         -1.3833751072        2.6346977065       -2.5268855060
 H         -0.4537694958        4.6479109003       -1.5161401956
 H          1.0849205139        5.3634190542        0.2702773250
 H          3.3671232134        5.4720496537        1.1679814654
 H          5.4901614381        4.3305917810        1.4461033541
 H          6.1719224255        4.8090543521       -0.1218315940
 H          4.0465236599        2.4656114014        1.7309103773
 H          2.8896643120        0.3272764561        1.9677001108
 H          7.1938055829        0.6169999180       -0.5206359692
 H          7.8408084491       -2.0359515723       -1.1874090879
 H          7.7435100675       -4.4526806813       -1.7001010025
 H          5.7637854254       -5.7785217850       -1.1304278488
 H          3.8275994260       -4.7461152034        0.0038172869
 H          3.0970958755       -4.0441722601        2.2271147957
 H          0.7723336762       -4.6673570390        2.8064035829
 H         -1.1104330216       -3.2522498476        2.0434340992
 H          0.7467911932        0.8139923792        1.7450332746
 H          0.0992617625        3.1818126284        1.8793948109
 H         -2.0401850513        3.9586112885        0.9646933469
 H         -3.5972036358        2.3782379911       -0.1243396147
 H         -4.8187893296        0.1745620376       -1.1559607886
 H         -7.3112548737       -1.7924489135       -2.9858325867
 H         -6.0733592952       -0.5169224656       -3.0129445896
 H         -7.1366847952       -2.3683969587        0.0317164685
 H         -8.2434690262       -1.3095812140        1.9494775017
 H         -9.2200926174        0.5119977391        3.0087230938
 H        -10.1589363246        2.7256113004        3.1510330713
 H         -9.6692653431        3.0973430821        1.4333782580
 H         -8.5665400491        2.3353718218       -0.2642132607
 H         -7.4548869479        1.2767626676       -2.1623260047
 H         -3.9072215650       -4.0006383894       -1.5110404166
 H         -1.7315475763       -3.6726126677       -0.3646754231
 H          4.6445607928        2.6437738367       -1.7656396049
 H          2.3602656457        2.4833488283       -2.6134562177
  89
  -139.564498380000       0.208619729534438      !
 C         -0.3088318213        2.6462469800       -2.3099224778
 C          0.2045974024        3.7469735518       -1.7770212458
 C          1.5762839273        3.8628037267       -1.2934229677
 C          1.8793550915        4.7488814888       -0.2602448569
 C          3.1544251095        4.8159411901        0.2662000200
 C          4.1727551815        4.0262682422       -0.2541057247
 C          5.5504408820        4.0522160583        0.3670261688
 O          6.2671905514        2.8371966442        0.2307812492
 C          5.6420277268        1.6735806383        0.5290240862
 C          4.4574169875        1.5957214610        1.2802346510
 C          3.7888714135        0.3991397661        1.4221989459
 C          4.3160605685       -0.7308409792        0.8121524543
 C          5.5883904291       -0.6944574550        0.1782103864
 C          6.2446727889        0.5134653103        0.0290878365
 C          5.8642502507       -2.0401494254       -0.2373407235
 C          6.9339704445       -2.6454134086       -0.8838175005
 C          6.8582011391       -3.9990743170       -1.1660251732
 C          5.7328327576       -4.7446845567       -0.8290684444
 C          4.6520890736       -4.1628154580       -0.1808026594
 C          4.7336736409       -2.8163815643        0.1276491877
 N          3.8085206877       -2.0017707478        0.7569319156
 C          2.4961593510       -2.3443253566        1.0992556098
 C          2.2237938898       -3.4298621173        1.9009327005
 C          0.9090789493       -3.7557168396        2.2402247092
 C         -0.1424264232       -2.9591247958        1.7815908651
 C          0.0961756099       -1.8642918886        0.9798447499
 N         -0.9610887690       -1.0624584841        0.5352581696
 C         -1.0551279202        0.3113351781        0.6711834016
 C         -0.1898330880        1.1994752278        1.2855772930
 C         -0.5523218957        2.5358884526        1.3308725047
 C         -1.7535231691        2.9755236004        0.7853592777
 C         -2.6302848162        2.0926744188        0.1791660926
 C         -2.2860461366        0.7492794992        0.1205414102
 C         -2.9460841393       -0.4193906183       -0.3814728570
 C         -4.1544177084       -0.6169624856       -1.0347756400
 C         -4.4965730353       -1.9121152517       -1.4114160252
 O         -5.6371778332       -2.2529906658       -2.0598292106
 C         -6.5465961329       -1.2367326916       -2.4286305485
 C         -7.2086627734       -0.5442380922       -1.2627600917
 C         -7.6256260815        0.7775295958       -1.3725456882
 C         -8.2496782776        1.4027860392       -0.3135798821
 C         -8.4756278744        0.7337374523        0.8930974593
 C         -9.1413814109        1.4397876091        1.9763569386
 C         -9.4784272677        0.9439697013        3.1634783821
 C         -8.0467509586       -0.5924710206        0.9925279166
 C         -7.4290395382       -1.2201509117       -0.0685081403
 C         -3.6289973587       -2.9901901153       -1.1423826846
 C         -2.4282943250       -2.8064282315       -0.4940865076
 C         -2.0893789867       -1.5166764234       -0.0988295344
 C          1.4304131621       -1.5371384292        0.5750070159
 C          1.6604920784       -0.5761389654       -0.3937718541
 N          1.8406845785        0.2205751930       -1.2174130811
 C          3.8919846629        3.1945094565       -1.3310375657
 C          2.6109137923        3.1017198582       -1.8343421027
 H          0.2674031690        1.7415885595       -2.3998490512
 H         -1.3338938685        2.6012781473       -2.6374770693
 H         -0.4141058800        4.6263733227       -1.6419162870
 H          1.0968252103        5.3683646508        0.1555335921
 H          3.3630505621        5.4827574245        1.0923613476
 H          5.4786096667        4.3338561909        1.4273539869
 H          6.1848603219        4.7916526460       -0.1355737457
 H          4.0466265885        2.4791373968        1.7387850220
 H          2.8779461025        0.3480555615        1.9968054843
 H          7.1814840097        0.5923483755       -0.4982296605
 H          7.8024721323       -2.0685139580       -1.1614988623
 H          7.6822779231       -4.4857250712       -1.6662283263
 H          5.6962235015       -5.7941038717       -1.0787960250
 H          3.7751926653       -4.7419475196        0.0646744276
 H          3.0430436115       -4.0095792782        2.2999608428
 H          0.7090618288       -4.5970673697        2.8823689585
 H         -1.1554869258       -3.1761733379        2.0871257987
 H          0.7367687289        0.8684324953        1.7247315840
 H          0.1114296703        3.2445862227        1.8012937043
 H         -2.0080696204        4.0231913131        0.8430885858
 H         -3.5674519936        2.4357570132       -0.2322268945
 H         -4.8005717113        0.2228948434       -1.2286728500
 H         -7.3046163725       -1.7605816041       -3.0232610517
 H         -6.0522178581       -0.5005951213       -3.0777350933
 H         -7.4598375405        1.3159915050       -2.2957558220
 H         -8.5698586641        2.4301399609       -0.4162145133
 H         -9.3801272159        2.4737868640        1.7576843550
 H         -9.9750801181        1.5501549927        3.9013295263
 H         -9.2796608710       -0.0744756735        3.4485997479
 H         -8.1990929317       -1.1399562238        1.9091455566
 H         -7.1055844322       -2.2468193341        0.0244031090
 H         -3.9342351488       -3.9699859537       -1.4722357723
 H         -1.7671130755       -3.6390102450       -0.3107348135
 H          4.6788996699        2.5975166489       -1.7678097436
 H          2.4100618139        2.4316632763       -2.6528868235
  89
  -139.564479130000       0.204413084013562      !
 C         -0.2519689768        2.7923845693       -2.1934315218
 C          0.2925554529        3.8762726539       -1.6566391913
 C          1.6754384522        3.9593677428       -1.1985752175
 C          2.0146626121        4.8252745813       -0.1594884524
 C          3.2999351508        4.8593386946        0.3448901880
 C          4.2924280603        4.0562175616       -0.2039873746
 C          5.6780701973        4.0407948874        0.3991025075
 O          6.3659076691        2.8123585808        0.2370536709
 C          5.7181563180        1.6565268819        0.5164348786
 C          4.5294878208        1.5878324647        1.2624251287
 C          3.8384846875        0.4014647993        1.3828242004
 C          4.3504958763       -0.7293844785        0.7613578107
 C          5.6255722619       -0.7049743313        0.1318330472
 C          6.3021979180        0.4937578499        0.0010150734
 C          5.8852131975       -2.0502427171       -0.2948780013
 C          6.9489612812       -2.6640151115       -0.9431958379
 C          6.8573734409       -4.0146589694       -1.2351090881
 C          5.7219191292       -4.7486645040       -0.9066140410
 C          4.6464769952       -4.1579123947       -0.2576433859
 C          4.7439740220       -2.8148343637        0.0612141084
 N          3.8275077764       -1.9933257668        0.6940553044
 C          2.5181458955       -2.3333641908        1.0494798693
 C          2.2576129604       -3.4260750740        1.8455193753
 C          0.9479254253       -3.7587900939        2.1971916311
 C         -0.1099423385       -2.9642660816        1.7514472202
 C          0.1162623892       -1.8621437754        0.9554097080
 N         -0.9539833077       -1.0714072519        0.5232045967
 C         -1.0731514690        0.2991284079        0.6710175857
 C         -0.2118393900        1.2011051633        1.2712419988
 C         -0.6002176221        2.5295562560        1.3327203277
 C         -1.8221378479        2.9478074979        0.8165342784
 C         -2.6944023807        2.0510291610        0.2246814502
 C         -2.3251622595        0.7148013508        0.1505373857
 C         -2.9724232721       -0.4637699521       -0.3452879266
 C         -4.1920351425       -0.6841655880       -0.9708795999
 C         -4.5114659942       -1.9833800057       -1.3532800199
 O         -5.6571936117       -2.3461956264       -1.9809311144
 C         -6.5938257459       -1.3501185303       -2.3324130572
 C         -7.2753651826       -0.6927346977       -1.1570967262
 C         -7.4281296122       -1.3677219717        0.0472344549
 C         -8.0715695537       -0.7648108033        1.1080820070
 C         -8.5991412017        0.5246351505        0.9989727959
 C         -9.2866679008        1.1068376067        2.1412019518
 C         -9.9686596747        2.2486203638        2.1631977984
 C         -8.4374287419        1.1944162141       -0.2169342732
 C         -7.7836991898        0.5968336586       -1.2736685889
 C         -3.6133517581       -3.0436268367       -1.1152146617
 C         -2.4036323342       -2.8378611381       -0.4911544560
 C         -2.0859599898       -1.5442792330       -0.0910008966
 C          1.4459927187       -1.5225915469        0.5444680091
 C          1.6654320239       -0.5460917245       -0.4111192911
 N          1.8382113212        0.2649401519       -1.2224791876
 C          3.9765183916        3.2463330535       -1.2880860745
 C          2.6849842216        3.1859421266       -1.7690971570
 H          0.3058641261        1.8785958749       -2.3079378225
 H         -1.2835833228        2.7713075619       -2.5022674094
 H         -0.3062119501        4.7658311988       -1.4981900952
 H          1.2522693210        5.4538328012        0.2797938828
 H          3.5361930768        5.5089041140        1.1773019436
 H          5.6253757400        4.3076409746        1.4644262186
 H          6.3232942270        4.7731701834       -0.1001854005
 H          4.1331043995        2.4710914725        1.7338542690
 H          2.9229149151        0.3592157634        1.9507418357
 H          7.2424096346        0.5642450564       -0.5214798338
 H          7.8253849092       -2.0960671134       -1.2145012372
 H          7.6766446302       -4.5080694783       -1.7364547773
 H          5.6729686610       -5.7958855842       -1.1635029424
 H          3.7616683206       -4.7278011142       -0.0190529682
 H          3.0832329654       -4.0061519964        2.2307010516
 H          0.7575664711       -4.6045795654        2.8363486434
 H         -1.1199456925       -3.1881800170        2.0623810106
 H          0.7318603621        0.8862854281        1.6855399738
 H          0.0597089352        3.2495235205        1.7913283426
 H         -2.0956367796        3.9900544243        0.8848556715
 H         -3.6471174100        2.3777804898       -0.1640112440
 H         -4.8643582556        0.1407680650       -1.1397666384
 H         -7.3390098550       -1.8850255007       -2.9336487288
 H         -6.1218264336       -0.5908417468       -2.9716343471
 H         -7.0349210248       -2.3686747958        0.1489539545
 H         -8.1791566204       -1.3029389349        2.0391817828
 H         -9.2310766000        0.5153542000        3.0474676775
 H        -10.4514645915        2.5934582822        3.0613839126
 H        -10.0793428320        2.8799915543        1.2985266984
 H         -8.8195969903        2.1964403815       -0.3336186386
 H         -7.6645649304        1.1336258661       -2.2051744078
 H         -3.9030845170       -4.0267143911       -1.4490678071
 H         -1.7189148797       -3.6561128592       -0.3308559012
 H          4.7437947102        2.6406079796       -1.7474380621
 H          2.4558763231        2.5316296905       -2.5931328906
  89
  -139.564261470000       0.162360014111757      !
 C         -0.3079677071        2.8955265432       -2.0436603182
 C          0.2778163613        3.9641714719       -1.5201964040
 C          1.6779643656        4.0166980188       -1.1131073443
 C          2.0741345796        4.8693173511       -0.0833265509
 C          3.3796336617        4.8788999940        0.3674492902
 C          4.3351718590        4.0643250289       -0.2278683135
 C          5.7454876558        4.0252949860        0.3138935951
 O          6.4101800833        2.7914331096        0.1057334988
 C          5.7642758982        1.6399856995        0.4058798568
 C          4.6109778818        1.5764637152        1.2061260721
 C          3.9164748268        0.3947143677        1.3524029489
 C          4.3905280749       -0.7370132340        0.7031200660
 C          5.6326212799       -0.7179805676        0.0094333085
 C          6.3116001708        0.4765057963       -0.1469631252
 C          5.8601464710       -2.0615508163       -0.4388091356
 C          6.8830482635       -2.6781446250       -1.1480238677
 C          6.7648497450       -4.0255247861       -1.4455071628
 C          5.6434424315       -4.7541796966       -1.0616128874
 C          4.6092285573       -4.1607989331       -0.3501065253
 C          4.7341195998       -2.8212311760       -0.0276706739
 N          3.8577638476       -1.9974613110        0.6576957773
 C          2.5679877421       -2.3346385862        1.0791124311
 C          2.3458242188       -3.4284522685        1.8860628268
 C          1.0556783721       -3.7631322103        2.2991935633
 C         -0.0247951125       -2.9735035976        1.8978530269
 C          0.1637259463       -1.8725624004        1.0917691262
 N         -0.9273803163       -1.0924917823        0.6905229137
 C         -1.0503879212        0.2774807876        0.8291343260
 C         -0.1880708243        1.1853715173        1.4196460519
 C         -0.5781904875        2.5135328742        1.4700103955
 C         -1.8025369030        2.9251099462        0.9541314683
 C         -2.6752579873        2.0220834631        0.3720650743
 C         -2.3037493565        0.6862782068        0.3069282906
 C         -2.9461146105       -0.4976227247       -0.1849745431
 C         -4.1565928848       -0.7246141898       -0.8259942340
 C         -4.4644743556       -2.0260582941       -1.2106904398
 O         -5.5923650580       -2.3928517722       -1.8681715566
 C         -6.4827873971       -1.3935552017       -2.3171345272
 C         -7.2570459575       -0.7030015506       -1.2213160036
 C         -7.7495782724        0.5828631489       -1.4180346859
 C         -8.4983089100        1.2070018047       -0.4429080743
 C         -8.7752874000        0.5680388556        0.7687920616
 C         -9.5729134877        1.1757660104        1.8227532452
 C        -10.2487695077        2.3188011238        1.7506527519
 C         -8.2591070231       -0.7162482095        0.9615660826
 C         -7.5194712398       -1.3455807500       -0.0181947235
 C         -3.5708516468       -3.0837274517       -0.9480220846
 C         -2.3692785910       -2.8712820327       -0.3108641237
 C         -2.0573311681       -1.5733036204        0.0789724986
 C          1.4722293200       -1.5236442555        0.6271950200
 C          1.6465335006       -0.5368280414       -0.3275010540
 N          1.7765727371        0.2879339481       -1.1333072584
 C          3.9605712249        3.2648858115       -1.3009190932
 C          2.6492327052        3.2281121083       -1.7273662324
 H          0.2248779458        1.9704418295       -2.1811778558
 H         -1.3502802603        2.8978394260       -2.3146233474
 H         -0.2961977784        4.8645911174       -1.3347038870
 H          1.3412887565        5.5073480677        0.3911066062
 H          3.6612182663        5.5193072333        1.1927718050
 H          5.7424721699        4.2785958477        1.3838187581
 H          6.3769167123        4.7569126288       -0.2037958865
 H          4.2436836302        2.4601154999        1.6997813750
 H          3.0265761870        0.3577922502        1.9601946506
 H          7.2256431377        0.5428826048       -0.7144662317
 H          7.7475534625       -2.1142653955       -1.4626020191
 H          7.5511685543       -4.5202910672       -1.9959845161
 H          5.5719393050       -5.7984385742       -1.3248870991
 H          3.7343238369       -4.7262246419       -0.0681239900
 H          3.1898468380       -4.0084439991        2.2295411471
 H          0.8963129956       -4.6088177431        2.9468925977
 H         -1.0200348359       -3.2031949081        2.2493067952
 H          0.7568641485        0.8742769415        1.8347287118
 H          0.0819626657        3.2390436857        1.9195930371
 H         -2.0772588124        3.9674942981        1.0141834628
 H         -3.6293416322        2.3445261688       -0.0169561798
 H         -4.8303686556        0.0964970653       -1.0084607577
 H         -7.1818101677       -1.9326062881       -2.9683696532
 H         -5.9479700670       -0.6539179515       -2.9291760495
 H         -7.5425793903        1.0956344536       -2.3475450726
 H         -8.8667742691        2.2051075462       -0.6214115993
 H         -9.6119979882        0.6040004427        2.7423308126
 H        -10.8187698736        2.6844946049        2.5872836603
 H        -10.2690916293        2.9302590403        0.8650184981
 H         -8.4560799097       -1.2308277499        1.8914620401
 H         -7.1387270344       -2.3434208494        0.1444616811
 H         -3.8551755420       -4.0699682786       -1.2772402488
 H         -1.6859287175       -3.6872044139       -0.1340469279
 H          4.6979809015        2.6508249287       -1.7965686273
 H          2.3756240048        2.5842877291       -2.5461808798
