  94
  -153.864135650000       0.257787546550353      !
 N         -0.0041768239        3.3300077935       -2.1020451669
 C         -0.0006613332        2.3988057806       -1.4341947008
 C          0.0009261000        1.2181374783       -0.6529154633
 C         -1.2249998744        0.6150463672       -0.3311153151
 N         -2.4221460171        1.2329070730       -0.6863841073
 C         -2.8719307771        2.4607872333       -0.2187511143
 C         -2.2017586138        3.4256580280        0.5138913350
 C         -2.9034664969        4.5558523806        0.8892002601
 C         -4.2442998477        4.7194091283        0.5557159134
 C         -4.9223215482        3.7500427445       -0.1568818710
 C         -4.2359911151        2.6094610500       -0.5477814459
 C         -4.6240386197        1.4208460229       -1.2571810629
 C         -5.8130068520        0.9916602524       -1.8288578005
 C         -5.8332317411       -0.2298104381       -2.4739012828
 C         -4.6804417602       -1.0006486984       -2.5885095627
 C         -3.4839510714       -0.5895842173       -2.0321278233
 C         -3.4776376299        0.6033752161       -1.3286601923
 C         -1.2248469794       -0.6254501487        0.3311947749
 N         -2.4224223177       -1.2406488096        0.6894939227
 C         -3.4749790735       -0.6055086441        1.3313174611
 C         -3.4748300235        0.5875415418        2.0345874062
 C         -4.6696731352        1.0063783498        2.5888188191
 C         -5.8269833500        0.2427487064        2.4723639549
 C         -5.8131508436       -0.9794294612        1.8283612651
 C         -4.6259550504       -1.4163173675        1.2588878344
 C         -4.2440020698       -2.6069425236        0.5494985789
 C         -4.9370579716       -3.7430825672        0.1574668621
 C         -4.2645688602       -4.7157171353       -0.5558509821
 C         -2.9226610301       -4.5596649731       -0.8887704619
 C         -2.2141812661       -3.4340524363       -0.5122069944
 C         -2.8789403759       -2.4659443951        0.2211435699
 C          0.0016817203       -1.2291202064        0.6506027779
 C          0.0005430318       -2.4121178437        1.4282083843
 N         -0.0007426699       -3.3479526159        2.0889594549
 C          1.2278917210       -0.6249630762        0.3308482939
 N          2.4252561106       -1.2404933956        0.6889043700
 C          2.8767529368       -2.4709370339        0.2294113246
 C          2.2087909617       -3.4402782118       -0.4995371570
 C          2.9119892563       -4.5723999036       -0.8661266881
 C          4.2519617907       -4.7337389589       -0.5279400191
 C          4.9282461599       -3.7592439433        0.1791652197
 C          4.2405724629       -2.6162490729        0.5608134332
 C          4.6276449919       -1.4218300841        1.2609323782
 C          5.8174167709       -0.9848386972        1.8246762681
 C          5.8371625386        0.2427727396        2.4580906912
 C          4.6828372617        1.0113281224        2.5708385502
 C          3.4853933813        0.5924717292        2.0222680559
 C          3.4800651975       -0.6055875946        1.3275892927
 C          1.2276144989        0.6153944209       -0.3323612596
 N          2.4232809292        1.2343209601       -0.6896551862
 C          2.8671056976        2.4678316755       -0.2300133720
 C          2.1933499240        3.4334049183        0.4984142994
 C          2.8894800602        4.5698159057        0.8653876698
 C          4.2285605194        4.7390535083        0.5278048585
 C          4.9107671144        3.7684108269       -0.1789839693
 C          4.2301892383        2.6212251789       -0.5606218215
 C          4.6250929107        1.4284228827       -1.2591072612
 C          5.8177279413        0.9991473614       -1.8228290475
 C          5.8457556051       -0.2285891258       -2.4556634981
 C          4.6964816160       -1.0048558726       -2.5678339124
 C          3.4961232714       -0.5932570080       -2.0201075883
 C          3.4825354708        0.6051947924       -1.3261518189
 H         -1.1655575143        3.3089686569        0.7938952356
 H         -2.3991716674        5.3250564005        1.4545773088
 H         -4.7590310818        5.6163512053        0.8656140418
 H         -5.9659690702        3.8696857446       -0.4038983582
 H         -6.6993191157        1.6044313390       -1.7711251524
 H         -6.7511212277       -0.5869824345       -2.9156649222
 H         -4.7166038241       -1.9371487358       -3.1242548750
 H         -2.5876945201       -1.1793589867       -2.1535646224
 H         -2.5752421951        1.1721148280        2.1567124572
 H         -4.7011048191        1.9438493858        3.1231521213
 H         -6.7437579162        0.6061647468        2.9114893799
 H         -6.7033483299       -1.5865231893        1.7696872010
 H         -5.9811898371       -3.8568640579        0.4049941224
 H         -4.7842748747       -5.6095283727       -0.8664475875
 H         -2.4230909591       -5.3311766656       -1.4551936235
 H         -1.1772135038       -3.3232425127       -0.7917776238
 H          1.1728472604       -3.3261046326       -0.7820803196
 H          2.4097471881       -5.3451273118       -1.4284538839
 H          4.7675516370       -5.6324681103       -0.8311990541
 H          5.9717488966       -3.8761211109        0.4284471232
 H          6.7056440358       -1.5953451476        1.7684732036
 H          6.7569372573        0.6075522368        2.8902540757
 H          4.7189701087        1.9535198441        3.0964626321
 H          2.5884398604        1.1815233998        2.1417648668
 H          1.1586388861        3.3126966146        0.7820748589
 H          2.3822632588        5.3391410399        1.4279565313
 H          4.7388097059        5.6409249367        0.8306165922
 H          5.9535912418        3.8915161069       -0.4277201410
 H          6.7007140249        1.6171625729       -1.7700227585
 H          6.7666814747       -0.5856168929       -2.8911976141
 H          4.7382680395       -1.9463581172       -3.0943066902
 H          2.6030276584       -1.1882232627       -2.1393449316
  94
  -153.864128970000       0.255971738308280      !
 N         -0.0025517571        2.5880503025       -2.9796482078
 C          0.0005351492        1.7905452359       -2.1572156716
 C          0.0010429163        0.8416209598       -1.1066374256
 C         -1.2248720388        0.4321801462       -0.5590287852
 N         -2.4233496044        0.8759877302       -1.1139941577
 C         -3.4791036442        1.4089047946       -0.3894995757
 C         -3.4844982359        1.9171803612        0.8988327935
 C         -4.6824417035        2.3947698415        1.3958220651
 C         -5.8377915157        2.3947932434        0.6203549670
 C         -5.8185865033        1.9501179695       -0.6874593580
 C         -4.6280151057        1.4604879536       -1.2046748809
 C         -4.2414118020        0.9465285606       -2.4902929689
 C         -4.9308819486        0.7356943242       -3.6755832111
 C         -4.2551179478        0.1827470703       -4.7454613390
 C         -2.9135182870       -0.1699333616       -4.6389149931
 C         -2.2083668848        0.0284083070       -3.4666734671
 C         -2.8760110409        0.6025880231       -2.3982944402
 C         -1.2241085751       -0.4112263780        0.5665024337
 N         -2.4207638871       -0.8651150425        1.1167592022
 C         -2.8805088504       -0.5977667636        2.3997332814
 C         -2.2213784117       -0.0198980622        3.4713893542
 C         -2.9325214045        0.1697456346        4.6415021209
 C         -4.2714305221       -0.1947060131        4.7423112767
 C         -4.9384805896       -0.7520912100        3.6691964193
 C         -4.2427620326       -0.9553198688        2.4862797313
 C         -4.6196107710       -1.4721276397        1.1987925485
 C         -5.8021125173       -1.9759290818        0.6769277426
 C         -5.8110819908       -2.4206087079       -0.6311208185
 C         -4.6530775493       -2.4072080164       -1.4022795865
 C         -3.4624976483       -1.9164545943       -0.9002285633
 C         -3.4682198172       -1.4079936478        0.3878686594
 C          0.0023039962       -0.8148774933        1.1169003023
 C          0.0039645825       -1.7615790571        2.1694799906
 N          0.0060673848       -2.5574451662        2.9935571057
 C          1.2282944095       -0.4065992421        0.5683182583
 N          2.4246754657       -0.8526926594        1.1253252260
 C          3.4775480892       -1.3984925852        0.4066806052
 C          3.4817538566       -1.9125330930       -0.8791704570
 C          4.6765227497       -2.4045628112       -1.3701022577
 C          5.8288915839       -2.4132227198       -0.5904602780
 C          5.8100083599       -1.9623473851        0.7153781000
 C          4.6230942824       -1.4578095995        1.2264827397
 C          4.2366478008       -0.9349290084        2.5086784824
 C          4.9231533355       -0.7249128974        3.6958759021
 C          4.2477348753       -0.1620265828        4.7608413865
 C          2.9095343252        0.2016338003        4.6478662618
 C          2.2074241651        0.0051590839        3.4734194094
 C          2.8748348522       -0.5787779246        2.4101839792
 C          1.2280135424        0.4334925619       -0.5594860154
 N          2.4245886102        0.8737811842       -1.1209053897
 C          3.4886866160        1.4026280232       -0.4056610603
 C          3.5068060730        1.9152701139        0.8807521766
 C          4.7119194751        2.3851608587        1.3679741166
 C          5.8618155625        2.3742294781        0.5846558945
 C          5.8300081317        1.9263196402       -0.7218526836
 C          4.6322889929        1.4441232971       -1.2290878617
 C          4.2334020643        0.9289331710       -2.5105891398
 C          4.9124336525        0.7114670027       -3.7007159343
 C          4.2249696997        0.1610466662       -4.7645561647
 C          2.8822574726       -0.1835821634       -4.6470216175
 C          2.1876282798        0.0205565740       -3.4694313363
 C          2.8667963089        0.5934106383       -2.4076938891
 H         -2.5867561906        1.9496338378        1.4978759784
 H         -4.7182401585        2.7756979428        2.4053144317
 H         -6.7570404417        2.7682086860        1.0456217291
 H         -6.7070342852        1.9839008033       -1.2989552137
 H         -5.9752304856        0.9964609651       -3.7522280324
 H         -4.7723456195        0.0140352324       -5.6779105408
 H         -2.4113051429       -0.6100447910       -5.4872440354
 H         -1.1714707522       -0.2643816602       -3.3980508403
 H         -1.1866032578        0.2815476706        3.4074437211
 H         -2.4371022994        0.6122816314        5.4925892007
 H         -4.7935804198       -0.0315604603        5.6729875046
 H         -5.9807593347       -1.0220069534        3.7416572411
 H         -6.6924695427       -2.0209025028        1.2849188913
 H         -6.7242724700       -2.8051096762       -1.0596294334
 H         -4.6800671018       -2.7883616728       -2.4118971346
 H         -2.5618314782       -1.9397575004       -1.4953464687
 H          2.5857492620       -1.9381638163       -1.4812221524
 H          4.7113787721       -2.7904270451       -2.3776569309
 H          6.7456314583       -2.7982065836       -1.0104466517
 H          6.6961775071       -2.0032868793        1.3297022532
 H          5.9651819726       -0.9938529835        3.7778184630
 H          4.7627828542        0.0066499154        5.6945847545
 H          2.4075536627        0.6484294900        5.4928178757
 H          1.1729791045        0.3055793980        3.3991853218
 H          2.6136725477        1.9565158557        1.4861540454
 H          4.7573406328        2.7690195369        2.3758942124
 H          6.7868813613        2.7417619122        1.0023753952
 H          6.7143248521        1.9518987508       -1.3397193683
 H          5.9578451633        0.9651516896       -3.7860003039
 H          4.7340084460       -0.0125014410       -5.7006581870
 H          2.3707307343       -0.6224501352       -5.4904603321
 H          1.1498687024       -0.2667789436       -3.3920225808
  94
  -153.863913320000       0.203744615256897      !
 N         -0.0402067942        2.5787104766       -2.9793976722
 C         -0.0222472469        1.7783528157       -2.1598746143
 C         -0.0097221197        0.8275528749       -1.1110754489
 C         -1.2360039101        0.4083169905       -0.5693243810
 N         -2.4299773052        0.8236697686       -1.1555673293
 C         -3.5086535507        1.3723061361       -0.4796842997
 C         -3.5545273570        1.9244120802        0.7895552160
 C         -4.7701836954        2.4076970632        1.2354845066
 C         -5.9027891990        2.3714721497        0.4279624636
 C         -5.8431143311        1.8818365528       -0.8624252470
 C         -4.6347997827        1.3845900644       -1.3283469624
 C         -4.2092656942        0.8268583370       -2.5831305199
 C         -4.8623507079        0.5644892681       -3.7788811429
 C         -4.1517550020       -0.0238443963       -4.8065783101
 C         -2.8113826069       -0.3620634575       -4.6483418245
 C         -2.1420531187       -0.1125668968       -3.4649985835
 C         -2.8447528865        0.4981540305       -2.4401940195
 C         -1.2352560185       -0.4157440977        0.5682785730
 N         -2.4284777788       -0.8315538812        1.1558324313
 C         -2.8429408088       -0.5019671735        2.4396671432
 C         -2.1388164375        0.1087560866        3.4634747300
 C         -2.8084893085        0.3650882479        4.6451724038
 C         -4.1505695809        0.0334264883        4.8027881134
 C         -4.8622170066       -0.5559586340        3.7764208586
 C         -4.2087505971       -0.8253183411        2.5824295378
 C         -4.6354472011       -1.3844631548        1.3286654235
 C         -5.8452037442       -1.8786409283        0.8632752627
 C         -5.9060294563       -2.3703835413       -0.4262499580
 C         -4.7734429432       -2.4110307945       -1.2335997799
 C         -3.5563987766       -1.9307532611       -0.7882144494
 C         -3.5089499861       -1.3773523056        0.4804132519
 C         -0.0080167484       -0.8328516900        1.1094576573
 C         -0.0176182558       -1.7826993791        2.1591375625
 N         -0.0324427048       -2.5820117231        2.9797325801
 C          1.2172007045       -0.4328286492        0.5553519078
 N          2.4167990678       -0.9069051465        1.0807282505
 C          3.4490955991       -1.4332019775        0.3177995024
 C          3.4199001198       -1.8976043149       -0.9866332482
 C          4.5978272325       -2.3828964568       -1.5225868269
 C          5.7670714307       -2.4325418345       -0.7700467599
 C          5.7817926441       -2.0309864891        0.5517719091
 C          4.6118054408       -1.5344047243        1.1079689881
 C          4.2585838319       -1.0593288751        2.4179833238
 C          4.9746699954       -0.9046469735        3.5960406859
 C          4.3291996980       -0.3822816507        4.6993983642
 C          2.9916974026       -0.0051536619        4.6331054780
 C          2.2606964529       -0.1464389399        3.4684557148
 C          2.8979722710       -0.6887807552        2.3653959650
 C          1.2164751162        0.4297846412       -0.5574189412
 N          2.4154111624        0.9063938635       -1.0818543904
 C          3.4472620834        1.4305998517       -0.3166803951
 C          3.4162088213        1.8939900916        0.9880380751
 C          4.5942277210        2.3752731774        1.5273742110
 C          5.7653064464        2.4224500087        0.7775364599
 C          5.7814782446        2.0240086111       -0.5452238743
 C          4.6112735126        1.5318490375       -1.1048214887
 C          4.2586702171        1.0619322257       -2.4169073177
 C          4.9749918609        0.9140833636       -3.5956640910
 C          4.3294252469        0.3990423924       -4.7024207004
 C          2.9918622253        0.0216843648       -4.6385145828
 C          2.2607130559        0.1557660894       -3.4730188085
 C          2.8976861074        0.6920634985       -2.3668506860
 H         -2.6749456338        1.9844072737        1.4128533858
 H         -4.8375556097        2.8231095633        2.2295788679
 H         -6.8365689593        2.7519726496        0.8134283577
 H         -6.7141162378        1.8865714963       -1.4994517423
 H         -5.9061150772        0.8122143472       -3.8955886224
 H         -4.6405189645       -0.2333075714       -5.7460847203
 H         -2.2823894185       -0.8318556049       -5.4639214251
 H         -1.1062353086       -0.3966673007       -3.3525958903
 H         -1.1016873900        0.3881230993        3.3514551195
 H         -2.2784809471        0.8355638575        5.4596937274
 H         -4.6397943751        0.2488942951        5.7407042714
 H         -5.9071604944       -0.7989642451        3.8927277734
 H         -6.7163998291       -1.8794300682        1.5000527241
 H         -6.8408669154       -2.7487301310       -0.8112742009
 H         -4.8420417088       -2.8275092895       -2.2271720415
 H         -2.6769885568       -1.9938046236       -1.4114815549
 H          2.5103325837       -1.8930054081       -1.5685554426
 H          4.6062107421       -2.7312776207       -2.5442816143
 H          6.6698005392       -2.8113989485       -1.2248223166
 H          6.6805462658       -2.1041648296        1.1444983652
 H          6.0157171733       -1.1850790416        3.6414684299
 H          4.8671225128       -0.2576143602        5.6270550296
 H          2.5128110397        0.4085858821        5.5077573493
 H          1.2270365031        0.1626832351        3.4340185549
 H          2.5050589311        1.8919637871        1.5674297004
 H          4.6012277619        2.7220434633        2.5496436562
 H          6.6683325124        2.7971559057        1.2351529841
 H          6.6815183703        2.0963178363       -1.1360443436
 H          6.0159319360        1.1953040212       -3.6393663045
 H          4.8671550597        0.2810335658       -5.6310351261
 H          2.5127165589       -0.3857090388       -5.5160214082
 H          1.2269747595       -0.1533600781       -3.4408041951
  94
  -153.863911690000       0.203393487723161      !
 N          0.0354633381        2.5758633637       -2.9832704086
 C          0.0201477620        1.7778088880       -2.1614661650
 C          0.0091897465        0.8292855825       -1.1106956543
 C         -1.2163487004        0.4311000030       -0.5560899286
 N         -2.4160622768        0.9068835030       -1.0798270389
 C         -3.4464546417        1.4314461630       -0.3129928949
 C         -3.4118391111        1.8983990149        0.9903370085
 C         -4.5886725311        2.3797754984        1.5319790950
 C         -5.7621979489        2.4230297827        0.7858029963
 C         -5.7823518110        2.0200707158       -0.5355317520
 C         -4.6133233649        1.5278092878       -1.0974670182
 C         -4.2645390412        1.0530258645       -2.4087680765
 C         -4.9853742053        0.8965698535       -3.5836157366
 C         -4.3431667558        0.3766016813       -4.6900078851
 C         -3.0041858262        0.0036358705       -4.6297528034
 C         -2.2684308568        0.1464483997       -3.4681742419
 C         -2.9025630569        0.6863927125       -2.3621473437
 C         -1.2161942660       -0.4311056433        0.5571587515
 N         -2.4158531474       -0.9072753303        1.0806660931
 C         -2.9028482198       -0.6871928417        2.3628534781
 C         -2.2691797608       -0.1476309007        3.4693584960
 C         -3.0053337513       -0.0053704267        4.6306656448
 C         -4.3443416873       -0.3783073459        4.6901967160
 C         -4.9861306143       -0.8979545767        3.5833497571
 C         -4.2648299520       -1.0539492257        2.4087251961
 C         -4.6130657155       -1.5284168338        1.0971422882
 C         -5.7818568928       -2.0204454377        0.5344772199
 C         -5.7610851852       -2.4232232601       -0.7868988986
 C         -4.5870832263       -2.3802379131       -1.5323622432
 C         -3.4104888686       -1.8989472239       -0.9899993802
 C         -3.4458297262       -1.4319487361        0.3132957646
 C          0.0094894008       -0.8293086120        1.1114513154
 C          0.0203450571       -1.7780055537        2.1620546770
 N          0.0375608754       -2.5758444975        2.9839184217
 C          1.2361235559       -0.4115864419        0.5693643508
 N          2.4301165836       -0.8268257824        1.1558881043
 C          3.5093622033       -1.3730122688        0.4787931107
 C          3.5533761513       -1.9301571106       -0.7883094165
 C          4.7695575056       -2.4104496102       -1.2360778628
 C          5.9046284560       -2.3658923501       -0.4324610123
 C          5.8471937100       -1.8707941549        0.8559474690
 C          4.6382415738       -1.3770077212        1.3238361046
 C          4.2141617262       -0.8161897697        2.5777382436
 C          4.8701443692       -0.5452266744        3.7699390744
 C          4.1600487103        0.0433282134        4.7978225574
 C          2.8170495891        0.3726229174        4.6434655461
 C          2.1448991784        0.1151338420        3.4634188964
 C          2.8475474344       -0.4947591130        2.4381143243
 C          1.2359583555        0.4116622212       -0.5688514127
 N          2.4297346325        0.8271501257       -1.1557793140
 C          3.5088433152        1.3742346422       -0.4792112957
 C          3.5529622915        1.9315998648        0.7877667526
 C          4.7688424730        2.4131747745        1.2348483995
 C          5.9036007674        2.3693942657        0.4307847578
 C          5.8461504278        1.8735662528       -0.8573810312
 C          4.6374002851        1.3786738619       -1.3246618531
 C          4.2133397844        0.8169665954       -2.5781336271
 C          4.8692582556        0.5453896713       -3.7702552169
 C          4.1592597675       -0.0443309334       -4.7975796019
 C          2.8163753828       -0.3739705365       -4.6427770154
 C          2.1443547364       -0.1159873427       -3.4627239083
 C          2.8469593749        0.4948964088       -2.4379996848
 H         -2.4988354303        1.8985706032        1.5669733069
 H         -4.5929969082        2.7292206138        2.5533841377
 H         -6.6643418681        2.7975213328        1.2454104056
 H         -6.6848256188        2.0881348052       -1.1232159787
 H         -6.0274910596        1.1738423223       -3.6242477316
 H         -4.8849310338        0.2503220410       -5.6151938117
 H         -2.5277732264       -0.4076747178       -5.5068838966
 H         -1.2334756474       -0.1588701907       -3.4385843870
 H         -1.2342853716        0.1579029657        3.4402999220
 H         -2.5291749418        0.4053493470        5.5082086873
 H         -4.8862307054       -0.2531065685        5.6154038893
 H         -6.0280827821       -1.1756994142        3.6235611190
 H         -6.6843194239       -2.0895409577        1.1219602527
 H         -6.6627834390       -2.7984498011       -1.2467373443
 H         -4.5908136614       -2.7298911856       -2.5536848663
 H         -2.4971362099       -1.8991054326       -1.5660737014
 H          2.6719468288       -1.9960832932       -1.4084696489
 H          4.8354001508       -2.8302622779       -2.2284400472
 H          6.8387296575       -2.7441443277       -0.8193750034
 H          6.7204488042       -1.8684693753        1.4898507651
 H          5.9156431031       -0.7870097406        3.8839452292
 H          4.6509685724        0.2589024294        5.7348681876
 H          2.2880734387        0.8415155719        5.4595964667
 H          1.1069083568        0.3923345475        3.3539953531
 H          2.6717642550        1.9968360733        1.4083127358
 H          4.8347645518        2.8332208746        2.2270983060
 H          6.8375489976        2.7484246591        0.8173061303
 H          6.7192138499        1.8715179963       -1.4915263932
 H          5.9147561369        0.7873373367       -3.8845412798
 H          4.6503573486       -0.2612825771       -5.7341973241
 H          2.2877143546       -0.8445360847       -5.4581077186
 H          1.1065028794       -0.3937102502       -3.3527557558
  94
  -153.863019230000       7.910261216130889E-002 !
 N          0.0071431951        3.0330872388       -2.5381796314
 C          0.0040794150        2.1549782773       -1.8023726676
 C          0.0010651233        1.0697594657       -0.8930932888
 C         -1.2250460875        0.5451863149       -0.4550019683
 N         -2.4245934760        1.0878888274       -0.9131586274
 C         -2.8869492983        2.3708719461       -0.6468376474
 C         -2.2220771164        3.4493293273       -0.0875588657
 C         -2.9378271299        4.6161514652        0.1061187175
 C         -4.2837029604        4.7069446639       -0.2351197290
 C         -4.9546638566        3.6267618603       -0.7735626332
 C         -4.2557862010        2.4462946134       -0.9808069891
 C         -4.6350034726        1.1520978569       -1.4788881529
 C         -5.8236056442        0.6177808902       -1.9544417879
 C         -5.8332723812       -0.6953439629       -2.3838621183
 C         -4.6717171695       -1.4610781538       -2.3808150464
 C         -3.4754809391       -0.9477136185       -1.9163849590
 C         -3.4789090747        0.3473278318       -1.4259303086
 C         -1.2263066646       -0.5322839811        0.4482272913
 N         -2.4263189094       -1.0766127247        0.9025655997
 C         -3.4821338762       -0.3420857825        1.4204051334
 C         -3.4854163053        0.9541764987        1.9076796624
 C         -4.6828317616        1.4599695809        2.3776599258
 C         -5.8387211135        0.6855022582        2.3903664909
 C         -5.8217336515       -0.6288047682        1.9647501633
 C         -4.6322090116       -1.1552282943        1.4825638405
 C         -4.2468928495       -2.4479958894        0.9855484861
 C         -4.9380291850       -3.6346461405        0.7873117374
 C         -4.2626414841       -4.7112105168        0.2472318513
 C         -2.9203514429       -4.6106147070       -0.1054766967
 C         -2.2122360109       -3.4377159121        0.0795117042
 C         -2.8810150992       -2.3632699995        0.6419300471
 C         -0.0019904608       -1.0585965216        0.8894516081
 C         -0.0048350319       -2.1433461706        1.7993107482
 N         -0.0077501724       -3.0208162185        2.5359447236
 C          1.2240934569       -0.5351639098        0.4499495899
 N          2.4235688484       -1.0826016140        0.9020864856
 C          3.4748657670       -1.4625563862        0.0815717785
 C          3.4697839857       -1.7135588152       -1.2802823439
 C          4.6635729748       -2.0866592906       -1.8684730810
 C          5.8241384771       -2.2353447507       -1.1155072938
 C          5.8153596370       -2.0489980347        0.2534528891
 C          4.6293643596       -1.6679743800        0.8640427725
 C          4.2512609915       -1.4095843767        2.2267872131
 C          4.9487038925       -1.4282883458        3.4260286057
 C          4.2791898914       -1.0916062820        4.5859025424
 C          2.9366560310       -0.7270072329        4.5574122677
 C          2.2224269565       -0.6971462870        3.3739807391
 C          2.8852252014       -1.0562787554        2.2122139243
 C          1.2253593571        0.5434764524       -0.4518057246
 N          2.4264512204        1.0881145762       -0.9035668027
 C          3.4773581481        1.4679028965       -0.0826957552
 C          3.4713369524        1.7203056673        1.2789330375
 C          4.6646320061        2.0947539003        1.8673320622
 C          5.8257651924        2.2424680437        1.1149394188
 C          5.8186991520        2.0514688287       -0.2533746697
 C          4.6333516441        1.6687639086       -0.8642739908
 C          4.2576772269        1.4030171239       -2.2262588799
 C          4.9587871250        1.4073655638       -3.4235347184
 C          4.2920085530        1.0600811199       -4.5817928955
 C          2.9478058655        0.7013927491       -4.5541446467
 C          2.2295748358        0.6870136983       -3.3729364555
 C          2.8906621588        1.0536454295       -2.2125047977
 H         -1.1811418632        3.3932606540        0.1946905170
 H         -2.4399047474        5.4730109892        0.5343545831
 H         -4.8080445274        5.6358202356       -0.0692200806
 H         -6.0018286571        3.6914235987       -1.0255379158
 H         -6.7185371234        1.2198671086       -1.9882447366
 H         -6.7510250908       -1.1332540082       -2.7463402168
 H         -4.7009557102       -2.4756128581       -2.7483167838
 H         -2.5730348515       -1.5401578303       -1.9424877740
 H         -2.5872627978        1.5535145443        1.9276658448
 H         -4.7171431049        2.4753790448        2.7424894818
 H         -6.7572630649        1.1172400719        2.7580952103
 H         -6.7113998690       -1.2380643127        2.0072516657
 H         -5.9828727181       -3.7067556986        1.0473702056
 H         -4.7808145445       -5.6449169297        0.0885291249
 H         -2.4191149436       -5.4647151766       -0.5353461392
 H         -1.1739385061       -3.3741739995       -0.2113014196
 H          2.5679359802       -1.6276991267       -1.8680043313
 H          4.6913393406       -2.2667785686       -2.9324678265
 H          6.7396853129       -2.5209603257       -1.6110102255
 H          6.7084895766       -2.1988442720        0.8402097293
 H          5.9936685776       -1.6970787671        3.4445142403
 H          4.8022529086       -1.1041331123        5.5302567476
 H          2.4399606687       -0.4589062431        5.4777256851
 H          1.1840085781       -0.4000683051        3.3694654081
 H          2.5691016672        1.6345184379        1.8662054602
 H          4.6916561501        2.2769124035        2.9310082100
 H          6.7406461920        2.5300845546        1.6105370020
 H          6.7127077260        2.1989605075       -0.8394030753
 H          6.0048964723        1.6717003628       -3.4415111585
 H          4.8186100491        1.0589995375       -5.5242452784
 H          2.4533944550        0.4248598422       -5.4731720798
 H          1.1898530543        0.3943713228       -3.3683610009
