80
 energy: -99.576461968146 gnorm: 0.000117616163 xtb: 6.7.1 (edcfbbe)
C            4.55566705692563        3.77468727858493       -1.20970731479960
C            3.67080423112685        3.72716628904670        0.04384668003376
C            2.80295661406197        4.98855605924936        0.06121040575713
C            4.54945152480514        3.73608697868240        1.30267899303537
C            2.85181865839684        2.44496789320081        0.02279197752336
C            3.51709623021665        1.21655013860876        0.00757527655157
C            2.82025286760789       -0.00143921149046       -0.00543727217983
C            3.51595346774431       -1.22007441816528       -0.01825670719654
C            2.84954812579204       -2.44790407290837       -0.03186469831048
C            3.66741671474758       -3.73084791816095       -0.05087594047279
C            2.79848147064872       -4.99156440470694       -0.06136382714175
C            4.55535281013977       -3.77464256647576        1.20068758841768
C            4.54290083437965       -3.74490760029748       -1.31182337326368
C            1.47371533887535       -2.43887935708877       -0.02743870902109
C            0.71126661310817       -1.23855470837302       -0.01059407793590
C           -0.71215818420234       -1.23789915866626        0.00044238490087
C           -1.47582267466622       -2.43749288795037        0.01727643135435
C           -2.85165919894721       -2.44507381900023        0.02294476808039
C           -3.67122121458965       -3.72686927419897        0.04387943649238
C           -2.80410552643949       -4.98878257506413        0.05709713583970
C           -4.54706942873964       -3.73725272115051        1.30465723894955
C           -4.55885389261298       -3.77167613133681       -1.20782884143584
C           -3.51680079090864       -1.21659587596689        0.00917996116216
C           -2.81987124203855        0.00126267692076       -0.00413871838221
C           -3.51561879373785        1.21981653477335       -0.01683439095195
C           -2.84926749486831        2.44764372350489       -0.02947201446262
C           -3.66753419037601        3.73031217556416       -0.04782542281177
C           -4.55504788484931        3.77340326145215        1.20404794892871
C           -2.79912107267497        4.99135762533529       -0.05835045367523
C           -4.54349154965394        3.74426575580039       -1.30847599738074
C           -1.47344038130581        2.43868134795656       -0.02464409496631
C           -0.71096459934523        1.23831996155309       -0.00923530550769
C            0.71243779698537        1.23759641106507        0.00104610567376
C            1.47598655944697        2.43720164828639        0.01841702948426
C            1.39902085084813       -0.00079818810487       -0.00504677085438
C           -1.39867150338844        0.00054771159497       -0.00436716784220
H            3.93895961101698        3.74850629022407       -2.10586270497889
H            5.14230856805864        4.69110690635107       -1.22035844673987
H            5.24076994487918        2.93225648532714       -1.24416950313306
H            2.17307239593384        5.01893721867729        0.94755018167358
H            2.17677177734299        5.04598450900288       -0.82639825746980
H            3.44375004584389        5.86812390538032        0.07588468160313
H            5.23626144764011        2.89441287775600        1.31332941422306
H            5.13398852813093        4.65288421136145        1.34580594118983
H            3.92842776520980        3.67969909592937        2.19446112310062
H            4.59590171209630        1.17703944226281        0.00782180015807
H            4.59479413264620       -1.18155949899695       -0.01904880391315
H            2.16660454470454       -5.02504593896853       -0.94616987183694
H            2.17421948790259       -5.04486883380130        0.82786722061922
H            3.43853216998803       -5.87170736592364       -0.07403472308406
H            5.13730626230043       -4.69397371676438        1.21579287568322
H            5.24498043241157       -2.93565419778366        1.22779910962465
H            3.94118440616446       -3.73942372644839        2.09828181646842
H            3.91944701827850       -3.69671635053063       -2.20239040798032
H            5.22646112321698       -2.90070333257384       -1.32978795656629
H            5.13070761176334       -4.65982143636422       -1.35032291326438
H            0.94583675927311       -3.37429037376957       -0.04011249332191
H           -0.94895512243799       -3.37349549761524        0.02927219507324
H           -3.44535769176781       -5.86800748333510        0.07237103413762
H           -2.18040337604255       -5.04525007971650       -0.83232651340551
H           -2.17177242268478       -5.02077146158526        0.94162416847552
H           -5.13265540236730       -4.65341096794474        1.34727723908635
H           -3.92399465022829       -3.68337225634414        2.19517613750974
H           -5.23278956265815       -2.89472092429902        1.31850340041122
H           -5.14574626713710       -4.68791373573122       -1.21904063267416
H           -3.94411247146664       -3.74376721653795       -2.10528945272731
H           -5.24385911649642       -2.92904755115949       -1.23907367192683
H           -4.59558450452280       -1.17689496797480        0.01077790976838
H           -4.59444071493741        1.18118078258917       -0.01830360141512
H           -5.24187481853494        2.93217467953332        1.23289673775543
H           -3.94030226267804        3.74154694815598        2.10137265078003
H           -5.13998077458813        4.69086065777797        1.21799716779039
H           -2.16724949604080        5.02497065361112       -0.94314923901699
H           -3.43947733624015        5.87128176661904       -0.07102008551587
H           -2.17487867982069        5.04489737095490        0.83087762149478
H           -5.12846471568085        4.66091688683458       -1.34889040729894
H           -5.22975431432229        2.90221034844140       -1.32424415168508
H           -3.92052633617256        3.69208024424511       -2.19916601488380
H           -0.94563556781934        3.37415822864715       -0.03595063862281
H            0.94894156237497        3.37306825101364        0.03173114092349
