80
 energy: -99.575055928600 gnorm: 0.000036942201 xtb: 6.7.1 (edcfbbe)
C            5.10236569985910        3.62504170215680        0.10161080399680
C            3.57989339957506        3.78656735073147        0.09971237580239
C            3.19114528359717        4.61439710553237       -1.13333513499486
C            3.17951991787593        4.53584677592319        1.37851897959083
C            2.84775386364384        2.45237117525258        0.05607043771660
C            3.51679695253169        1.23018343802789        0.02708146145885
C            2.81929635614675        0.00994733736024        0.00032154282067
C            3.52542420105673       -1.20531995986472       -0.02639383132726
C            2.86505245511909       -2.43222980114499       -0.05480190015726
C            3.60664644993773       -3.76122927323367       -0.09742573689972
C            3.21142006396029       -4.51469222015501       -1.37536326168922
C            3.22396880555986       -4.59049522050772        1.13656735416048
C            5.12793619307472       -3.58889196586901       -0.09973025067249
C            1.48581109772405       -2.42779485818678       -0.04448667750791
C            0.71589900942958       -1.23554184827431       -0.01013920081486
C           -0.70712014149738       -1.24057088112745        0.01251916737447
C           -1.46856443141197       -2.43822183141968        0.04781177630102
C           -2.84773494149167       -2.45240678397457        0.05881175619664
C           -3.57987982352048       -3.78657176494373        0.10335266042736
C           -3.19213430405970       -4.61465759106022       -1.12983864243705
C           -3.17850466116494       -4.53560448068819        1.38198971887675
C           -5.10234964179653       -3.62499646208597        0.10645499431515
C           -3.51678150769952       -1.23022312284316        0.02974810494135
C           -2.81928735377374       -0.01000108839031        0.00212412308341
C           -3.52540665411278        1.20526971531123       -0.02457429780201
C           -2.86504408237930        2.43215757201073       -0.05395619380043
C           -3.60663219944261        3.76115419885074       -0.09673359808906
C           -3.22292269126577        4.59115819839207        1.13644230587426
C           -3.21242602873449        4.51382193778285       -1.37545510296732
C           -5.12792609625334        3.58885910905557       -0.09767860220827
C           -1.48580004618100        2.42770202967727       -0.04457189850589
C           -0.71588887623787        1.23545769729493       -0.01019304875282
C            0.70713741038021        1.24049558742399        0.01156308223212
C            1.46858292399673        2.43816319660437        0.04590557487391
C            1.40010245293665        0.00491727180585        0.00053491516521
C           -1.40008898571175       -0.00498990352059        0.00143078891989
H            5.44362468074349        3.12028253130537       -0.79930471759957
H            5.57078340631550        4.60692040672668        0.13379795698922
H            5.43566309946295        3.06613834368005        0.97304748614740
H            2.12466919058170        4.82091113321854       -1.15424413157262
H            3.45071949911130        4.07730872611921       -2.04337236324202
H            3.72109092538801        5.56478805476706       -1.12974796520779
H            3.43369853804099        3.94404856148198        2.25555134546283
H            3.70683831139892        5.48585578391040        1.43784385168629
H            2.11223953277438        4.73780098098773        1.40401232445034
H            4.59337806709703        1.18545023880808        0.02839838125150
H            4.60166231228185       -1.15296135587654       -0.02795515867765
H            3.46141372277143       -3.92212334885453       -2.25307524784557
H            2.14558009658406       -4.72415195713192       -1.40056478990279
H            3.74536829350121       -5.46105529322719       -1.43364771145864
H            3.76067527770002       -5.53708561174794        1.13394890151741
H            3.47981497398593       -4.05057514920493        2.04598555994388
H            2.15898792272518       -4.80456282157413        1.15783812598674
H            5.45710869788140       -3.02832641347363       -0.97166823392580
H            5.46576084911967       -3.08101077538141        0.80072588662936
H            5.60330687219676       -4.56744516391879       -0.13121456487618
H            0.96811182156506       -3.37116183192476       -0.07000288082632
H           -0.94418870343470       -3.37788608413486        0.07370881268659
H           -3.72192337719521       -5.56513050586362       -1.12550741893180
H           -3.45263847007943       -4.07784839527685       -2.03977566310016
H           -2.12563848622745       -4.82098928562651       -1.15167932839005
H           -3.70580753757601       -5.48558281623055        1.44190887370034
H           -2.11121186447562       -4.73759796994001        1.40668772135609
H           -3.43197906487445       -3.94362808517995        2.25910511284880
H           -5.57076579279198       -4.60684570785260        0.13951658224592
H           -5.44436182649915       -3.12066843879374       -0.79441784216703
H           -5.43489828466602       -3.06565593483914        0.97789867616358
H           -4.59336914673570       -1.18548753065417        0.03165379903441
H           -4.60165132654341        1.15292693237500       -0.02534695022083
H           -2.15795021279148        4.80536816604320        1.15661523066512
H           -3.75973854791038        5.53768666699391        1.13377327910908
H           -3.47787167334774        4.05172816977624        2.04640463804573
H           -3.74628955950945        5.46022805983422       -1.43382227325471
H           -2.14657699572872        4.72310766906122       -1.40170459549385
H           -3.46326558270127        3.92077620741973       -2.25260486483600
H           -5.60330119884335        4.56740096739165       -0.12948712514141
H           -5.46502215678543        3.08162988295837        0.80341861930090
H           -5.45782778238587        3.02767476680899       -0.96894124907027
H           -0.96810833963051        3.37105098778847       -0.07088145986630
H            0.94422429037450        3.37783228758028        0.07175372469758
