  80
        -99.63424993
 C          5.1023592445        3.6329273850        0.1379592609
 C          3.5783340806        3.7772672935        0.1207487722
 C          3.1917426826        4.6061398424       -1.1120691099
 C          3.1560073115        4.5140679103        1.3997312522
 C          2.8666453556        2.4341115243        0.0635654014
 C          3.5273448535        1.2327799521        0.0275462334
 C          2.8276207466        0.0101719247       -0.0085223484
 C          3.5361343787       -1.2074860981       -0.0394596547
 C          2.8841134755       -2.4136652342       -0.0714266968
 C          3.6055688611       -3.7521462150       -0.1116694481
 C          3.1987610724       -4.5046858065       -1.3864162276
 C          3.2145887563       -4.5713260161        1.1264953225
 C          5.1286892215       -3.5971641157       -0.1171701850
 C          1.4810033853       -2.4021702691       -0.0606644389
 C          0.7338394786       -1.2409563579       -0.0234346317
 C         -0.7250112518       -1.2461956511        0.0068239180
 C         -1.4637669694       -2.4127224107        0.0471139336
 C         -2.8666427130       -2.4341128235        0.0680773289
 C         -3.5783792113       -3.7774610007        0.1177746933
 C         -3.1976507131       -4.5948289178       -1.1245063423
 C         -3.1498421771       -4.5261627573        1.3878913926
 C         -5.1021569457       -3.6321578597        0.1441336994
 C         -3.5273592432       -1.2325294328        0.0400059147
 C         -2.8276173589       -0.0099585473        0.0032447210
 C         -3.5360903254        1.2077943776       -0.0260546957
 C         -2.8841396433        2.4137621420       -0.0668100836
 C         -3.6056511893        3.7520655762       -0.1140232577
 C         -3.1918931403        4.5930492798        1.1019158860
 C         -3.2218255180        4.4816862431       -1.4090506153
 C         -5.1286401822        3.5982326832       -0.0876974954
 C         -1.4809793301        2.4020623662       -0.0637274830
 C         -0.7338795823        1.2409493890       -0.0226434352
 C          0.7250233983        1.2461819135        0.0037803864
 C          1.4636932600        2.4126286299        0.0469338006
 C          1.4124562237        0.0050422014       -0.0100527466
 C         -1.4124546484       -0.0050268504       -0.0037810160
 H          5.4586611780        3.1381383014       -0.7625843715
 H          5.5601884766        4.6192719417        0.1827767916
 H          5.4312412288        3.0701135167        1.0084881354
 H          2.1226926097        4.7975014655       -1.1454598606
 H          3.4705239251        4.0783673752       -2.0219063833
 H          3.7074618014        5.5642053340       -1.0963819586
 H          3.4073838804        3.9191575169        2.2755684863
 H          3.6728470187        5.4689709270        1.4703846165
 H          2.0865667987        4.7056262548        1.4163582764
 H          4.6044362775        1.1829527329        0.0300426046
 H          4.6128065455       -1.1500566616       -0.0378235025
 H          3.4561780838       -3.9184995437       -2.2662514234
 H          2.1303631926       -4.7009357690       -1.4109714797
 H          3.7203027743       -5.4580708915       -1.4413635969
 H          3.7399891546       -5.5242355420        1.1268745940
 H          3.4789115499       -4.0304190809        2.0328929666
 H          2.1472879414       -4.7730788366        1.1513712371
 H          5.4615107753       -3.0403198302       -0.9900303523
 H          5.4732507738       -3.0913138767        0.7818269419
 H          5.5937857516       -4.5806080272       -0.1483914586
 H          0.9729217926       -3.3517292312       -0.0832239193
 H         -0.9487523192       -3.3586714163        0.0652565617
 H         -3.7147070263       -5.5521927772       -1.1156193758
 H         -3.4788453083       -4.0583332841       -2.0283297110
 H         -2.1289150462       -4.7875042192       -1.1635657762
 H         -3.6660971708       -5.4818704976        1.4511461973
 H         -2.0803913716       -4.7177178168        1.3978692070
 H         -3.3977305291       -3.9402203272        2.2707231362
 H         -5.5601759177       -4.6185776275        0.1839629384
 H         -5.4633010302       -3.1305565884       -0.7507001291
 H         -5.4261371551       -3.0758009251        1.0207075775
 H         -4.6044120979       -1.1826564847        0.0474818275
 H         -4.6127658947        1.1505124965       -0.0182590017
 H         -2.1258272642        4.8025645467        1.0994345467
 H         -3.7233306380        5.5426062008        1.0990868238
 H         -3.4320882180        4.0651912710        2.0225741180
 H         -3.7373560046        5.4381901301       -1.4678566919
 H         -2.1525995220        4.6685120423       -1.4598007527
 H         -3.5027833273        3.8837571566       -2.2737171915
 H         -5.5937703738        4.5816196018       -0.1200062787
 H         -5.4549796232        3.1018402229        0.8233101556
 H         -5.4794775486        3.0327130406       -0.9477936155
 H         -0.9727280614        3.3512754935       -0.0962010276
 H          0.9485076372        3.3583242237        0.0720610108
