  94
       -151.51008770
 C         -5.8609231086       -5.3857856119        0.8372275537
 C         -5.0667540653       -4.5888021675        1.6456518598
 C         -4.7559031973       -3.2984956914        1.2608291969
 C         -5.2320495925       -2.8011882534        0.0505883287
 N         -4.9375064685       -1.4819851369       -0.3232342350
 C         -5.9076033690       -0.5199784069       -0.5248746804
 C         -7.2776688834       -0.6789939906       -0.6671297861
 C         -8.0362144088        0.4446559011       -0.9302736398
 C         -7.4374458598        1.6928223448       -1.0739665600
 C         -6.0800660310        1.8619015026       -0.8901203371
 C         -5.3006703451        0.7575671997       -0.5563997511
 C         -3.9054145666        0.5469034899       -0.2807048396
 C         -3.7132520178       -0.8545060228       -0.2270990136
 C         -2.4217169285       -1.4065479006       -0.2155225667
 C         -1.8693002557       -2.7225476824       -0.4109580593
 C         -2.3954573005       -3.9758799032       -0.7121927381
 C         -1.5379650893       -5.0420345204       -0.8955097716
 C         -0.1582543757       -4.8831919596       -0.8197828552
 C          0.3960450147       -3.6431604100       -0.5714396959
 C         -0.4629412595       -2.5755265599       -0.3632850103
 N         -0.1483509407       -1.2427162514       -0.1705376394
 C          1.1220621331       -0.7170541340       -0.4286589970
 C          1.2560032508        0.2706507944       -1.4365259530
 C          2.4757989078        0.7885316396       -1.7486801764
 C          3.6302950857        0.3391598898       -1.0692847688
 N          4.8287309673        0.8490797382       -1.3758901271
 C          5.8813792444        0.4032096011       -0.7144085831
 C          7.1869650083        0.9376697296       -1.0315691180
 C          7.3038895524        1.9082589947       -2.0305766064
 C          8.5312314724        2.4342753951       -2.3590893409
 C          9.6648900821        1.9921665481       -1.6865720210
 C          9.5631273994        1.0367220370       -0.6990471701
 C          8.3282415495        0.4824741157       -0.3419413915
 C          8.1938208471       -0.5290336260        0.6975472956
 C          9.2890625997       -1.0161683023        1.4206117870
 C          9.1376862695       -1.9751514143        2.3983191971
 C          7.8797993507       -2.4880660223        2.6937842227
 C          6.7843982965       -2.0281038870        2.0011893494
 C          6.9239970774       -1.0552052345        1.0074634355
 C          5.7499974035       -0.5934039779        0.2997657944
 N          4.5737664780       -1.1076800254        0.6067375029
 C          3.4989864521       -0.6623472513       -0.0605423176
 C          2.2251388932       -1.1794294462        0.2452147335
 C         -1.3230026960       -0.5263804133       -0.0852330429
 C         -1.5063080162        0.8460009806        0.1430903835
 C         -0.6543239353        1.9405923345        0.5239187661
 C          0.6670913994        2.0591518854        0.9472707602
 C          1.1528431105        3.3030707144        1.2950701227
 C          0.3404199465        4.4327292852        1.2638729938
 C         -0.9899735270        4.3366886728        0.9079547225
 C         -1.4759904888        3.0914041097        0.5399759517
 N         -2.7717526419        2.7355702519        0.2190568354
 C         -3.8627235569        3.5792494443        0.4882950555
 C         -3.9850179664        4.7938419630       -0.1780821036
 C         -5.0412166252        5.6369849218        0.1175534563
 C         -5.9762421557        5.2751559560        1.0731599891
 C         -5.8523737279        4.0668416467        1.7389944975
 C         -4.7970088810        3.2209692638        1.4551631800
 C         -2.8101241825        1.3763864952        0.0043918417
 C         -6.0261320297       -3.6035278442       -0.7633855975
 C         -6.3381769889       -4.8910721373       -0.3653093743
 H         -6.1046177646       -6.3922458262        1.1416756234
 H         -4.6918120685       -4.9722355172        2.5826147377
 H         -4.1375889481       -2.6703677456        1.8840436997
 H         -7.7403527904       -1.6497505935       -0.5775544214
 H         -9.1051928417        0.3487380072       -1.0484327558
 H         -8.0470415464        2.5463479081       -1.3310519798
 H         -5.6394077915        2.8338548003       -1.0308437795
 H         -3.4537024648       -4.1260354846       -0.8266094606
 H         -1.9478409844       -6.0158892199       -1.1188190921
 H          0.4879400012       -5.7334936320       -0.9782452087
 H          1.4664186466       -3.5093674380       -0.5612598028
 H          0.3672660643        0.5994978049       -1.9529665978
 H          2.5939678647        1.5396562165       -2.5135754986
 H          6.4024911667        2.2261515067       -2.5304678395
 H          8.6164613619        3.1833011837       -3.1319452302
 H         10.6334728500        2.3989355155       -1.9381584262
 H         10.4647257768        0.7190426926       -0.2002849915
 H         10.2803500704       -0.6423513317        1.2203870913
 H         10.0041149095       -2.3290984731        2.9376844487
 H          7.7665853135       -3.2397362019        3.4604980194
 H          5.7929280183       -2.4016542006        2.2032765834
 H          2.1406990509       -1.9147476887        1.0298611088
 H          1.3048619863        1.1969884129        1.0376249338
 H          2.1803296595        3.3987834940        1.6135091115
 H          0.7482504380        5.3912804289        1.5479720648
 H         -1.6361009625        5.2006839448        0.9364671361
 H         -3.2614179227        5.0615472728       -0.9341238200
 H         -5.1365678398        6.5777475806       -0.4044852626
 H         -6.8008789576        5.9343515314        1.2980246857
 H         -6.5782787246        3.7834912669        2.4860392778
 H         -4.6902311104        2.2796419014        1.9722137198
 H         -6.3708658960       -3.2230217451       -1.7131315235
 H         -6.9501332073       -5.5129415090       -1.0017732735
