  52
  -84.6181665445000       0.509822776509181      !
 O          7.8005389552        0.8339733072        0.0633474119
 C          6.6654059159        0.3623024008        0.0195085956
 C          6.3363688159       -1.0896795713       -0.1936817382
 O          7.1666786595       -1.9881790415       -0.3438636440
 C          4.8768922568       -1.1853851943       -0.1768325599
 C          4.0044889896       -2.2419173805       -0.2967777717
 C          2.6300897794       -1.9691858202       -0.2263711912
 C          2.1001831458       -0.7013692176       -0.0512799926
 C          0.6473409591       -0.5153237776       -0.0407398113
 C          0.0425745185        0.4828187452       -0.8079164840
 C         -1.3250745652        0.6475115749       -0.8069846423
 C         -2.1380986991       -0.1814442020       -0.0292004203
 N         -3.5216474844       -0.0136605505       -0.0198842956
 C         -4.3613899293       -1.1301974927        0.0801314422
 C         -5.5327464572       -1.0670230255        0.8355587411
 C         -6.3570525121       -2.1713269809        0.9289206740
 C         -6.0274484032       -3.3499213549        0.2784317904
 C         -4.8646926787       -3.4171790851       -0.4728367589
 C         -4.0356368675       -2.3176186378       -0.5766822078
 C         -4.0757088355        1.2688126587       -0.1093234525
 C         -5.2481247514        1.4816064602       -0.8355122222
 C         -5.7933908858        2.7479749345       -0.9159105370
 C         -5.1806877335        3.8172801334       -0.2819043646
 C         -4.0153495242        3.6109871012        0.4393901661
 C         -3.4642941759        2.3480086480        0.5305232084
 C         -1.5384701329       -1.1867527029        0.7347347292
 C         -0.1714693733       -1.3518522435        0.7205164578
 C          2.9909824003        0.4052010415        0.1041969395
 C          2.6821896557        1.7595425221        0.3815096059
 C          3.6838161615        2.6898699101        0.5157901131
 C          5.0508763597        2.3694912317        0.4028001392
 C          5.3784712264        1.0589312372        0.1613437113
 C          4.3484683706        0.1071979720        0.0250152804
 H          4.3528795061       -3.2519088041       -0.4457587662
 H          1.9454867205       -2.7975398687       -0.3454796529
 H          0.6527272998        1.1075335640       -1.4433517684
 H         -1.7790668343        1.4092964322       -1.4239344036
 H         -5.7821093890       -0.1527427425        1.3544117548
 H         -7.2580036464       -2.1134471409        1.5207901079
 H         -6.6726637661       -4.2111647440        0.3568645607
 H         -4.6049486621       -4.3290936458       -0.9889875555
 H         -3.1373913317       -2.3644656524       -1.1751214321
 H         -5.7178876815        0.6507357615       -1.3416375805
 H         -6.6981078957        2.9018696613       -1.4843983988
 H         -5.6088991902        4.8053735593       -0.3489255140
 H         -3.5367217577        4.4374181367        0.9429322011
 H         -2.5654612521        2.1837771768        1.1073803484
 H         -2.1551464349       -1.8249852633        1.3505714090
 H          0.2787437154       -2.1175015173        1.3346599260
 H          1.6524178007        2.0594218888        0.5073817973
 H          3.4210905612        3.7166801876        0.7255947481
 H          5.8043099380        3.1328671283        0.5172739582
  52
  -84.6181043381000       0.477343652362353      !
 O          7.7801882773        0.0819532082       -1.0225195715
 C          6.6561525467       -0.0406991896       -0.5381147920
 C          6.3565488812       -0.5718130190        0.8364022093
 O          7.2034906825       -0.9438206080        1.6509699251
 C          4.9007700524       -0.5413376569        0.9788351552
 C          4.0512906901       -0.8781838970        2.0064659987
 C          2.6729083504       -0.7168314166        1.7981520185
 C          2.1182291065       -0.2456563103        0.6200697802
 C          0.6611473288       -0.1631882729        0.4821919325
 C          0.0148979324       -0.6848150408       -0.6401231233
 C         -1.3557575186       -0.6189178403       -0.7639860133
 C         -2.1296930147       -0.0236162674        0.2358850601
 N         -3.5160140215        0.0508071931        0.1108430669
 C         -4.2231365550       -0.9830852584       -0.5162939312
 C         -5.3151535863       -0.6929108580       -1.3350946646
 C         -6.0146982564       -1.7153663230       -1.9454670759
 C         -5.6368175668       -3.0350970197       -1.7544997635
 C         -4.5515115409       -3.3277959059       -0.9437555316
 C         -3.8477828971       -2.3133915140       -0.3247204919
 C         -4.2110709769        1.1590939468        0.6104340529
 C         -3.6649165960        2.4395929522        0.5124073397
 C         -4.3582351191        3.5282395910        1.0038400679
 C         -5.6017833824        3.3605974307        1.5923428331
 C         -6.1492964512        2.0910897932        1.6894840334
 C         -5.4623388650        0.9948672691        1.2061222166
 C         -1.4882279806        0.4911376415        1.3659679395
 C         -0.1179773036        0.4163066526        1.4849883108
 C          2.9860208521        0.1384758392       -0.4482649204
 C          2.6525145254        0.7225439894       -1.6950911885
 C          3.6347102459        1.0403662880       -2.6011810547
 C          5.0051983679        0.8249375023       -2.3568050517
 C          5.3575045804        0.2866907991       -1.1446203522
 C          4.3475098792       -0.0372105328       -0.2170371335
 H          4.4193772740       -1.2618253595        2.9450501442
 H          2.0053456357       -1.0070111044        2.5976440927
 H          0.5960096898       -1.1675155319       -1.4119044895
 H         -1.8390147413       -1.0206428252       -1.6426481008
 H         -5.6013131961        0.3367106371       -1.4940503240
 H         -6.8555155868       -1.4792257885       -2.5800486300
 H         -6.1852443808       -3.8309048300       -2.2342193541
 H         -4.2549727277       -4.3535979946       -0.7850280087
 H         -3.0105490360       -2.5421711894        0.3188064339
 H         -2.7027101834        2.5726576288        0.0391616987
 H         -3.9282799521        4.5148111013        0.9178035368
 H         -6.1410615951        4.2142745097        1.9725283657
 H         -7.1143662672        1.9515014089        2.1526964880
 H         -5.8824132478        0.0034365733        1.2951686871
 H         -2.0766594269        0.9385739513        2.1536492989
 H          0.3636915202        0.8241819406        2.3613425261
 H          1.6197803170        0.9361818211       -1.9276538244
 H          3.3532749295        1.4827277898       -3.5458260977
 H          5.7425706740        1.0900880027       -3.0980438142
  52
  -84.6146870353000       1.283357112846608E-002 !
 O          7.7264005278       -0.6467678449       -0.9820342264
 C          6.6192569350       -0.4177802794       -0.4934179176
 C          6.3789651588        0.1431220752        0.8800619981
 O          7.2596181097        0.4433197398        1.6870559100
 C          4.9228706429        0.2482131064        1.0331396226
 C          4.1137569153        0.6881605505        2.0518359020
 C          2.7209807646        0.6517914668        1.8490346312
 C          2.1322617636        0.1968708300        0.6886196590
 C          0.6612151862        0.1869986849        0.5385586312
 C         -0.0055992848        1.3069180889        0.0514250157
 C         -1.3762115703        1.2983689539       -0.1046819901
 C         -2.1168490903        0.1633729841        0.2319294205
 N         -3.5047141975        0.1498469800        0.0771044242
 C         -4.1518573338       -1.0235550532       -0.3283761077
 C         -5.3956244085       -1.3638716373        0.2053530199
 C         -6.0314425177       -2.5203727862       -0.2014832434
 C         -5.4402641362       -3.3540053318       -1.1376754283
 C         -4.2042273281       -3.0212440894       -1.6690762972
 C         -3.5618522517       -1.8647832566       -1.2728568061
 C         -4.2504610269        1.3084130915        0.3224802134
 C         -5.3588927931        1.6142630373       -0.4685728753
 C         -6.0939820061        2.7567096941       -0.2203473409
 C         -5.7361310239        3.6111161376        0.8105686347
 C         -4.6349143063        3.3127265333        1.5975061428
 C         -3.8959562931        2.1701857495        1.3616717579
 C         -1.4482253997       -0.9596772062        0.7240418098
 C         -0.0764546184       -0.9455756936        0.8692660176
 C          2.9527102369       -0.2645608329       -0.3794674345
 C          2.5515033116       -0.7607109067       -1.6435037415
 C          3.4941919066       -1.1561672641       -2.5604633345
 C          4.8806254382       -1.0976627002       -2.3132935928
 C          5.2944782603       -0.6213421001       -1.0935960795
 C          4.3247597910       -0.2154348173       -0.1551241045
 H          4.5177014056        1.0534730249        2.9829292796
 H          2.0815811796        0.9984616946        2.6491368029
 H          0.5608243103        2.1862201566       -0.2182426760
 H         -1.8820938276        2.1667531613       -0.5003642662
 H         -5.8500587997       -0.7212895332        0.9455192122
 H         -6.9909237633       -2.7765217282        0.2223291530
 H         -5.9394149279       -4.2577947541       -1.4510113799
 H         -3.7402294052       -3.6619063975       -2.4037576834
 H         -2.6053391143       -1.5977021074       -1.6987488788
 H         -5.6292940210        0.9563766701       -1.2818034516
 H         -6.9466957321        2.9854850323       -0.8416767304
 H         -6.3119099073        4.5037729934        0.9997456663
 H         -4.3539387819        3.9692704095        2.4071461038
 H         -3.0477041242        1.9296544099        1.9859756731
 H         -2.0137472346       -1.8373646637        1.0006674139
 H          0.4326013273       -1.8173505413        1.2539181881
 H          1.4990102387       -0.8232085934       -1.8798357671
 H          3.1689289900       -1.5304720734       -3.5204474618
 H          5.5834432437       -1.4187107836       -3.0660137309
