  141
       -204.80069790
 C        -13.5498864324       -3.6791522155        3.4276819978
 C        -13.6749216723       -3.4787993393        1.9107144813
 C        -15.0866968355       -2.9653087622        1.6143567338
 C        -13.4979010170       -4.8238576112        1.1917674656
 C        -12.5927261638       -2.5176412141        1.4416585525
 C        -11.2490496707       -2.8618315718        1.6422473965
 C        -10.2006789953       -2.0597261469        1.2402398539
 C        -10.5015457405       -0.8658436699        0.6018958261
 C        -11.8462526787       -0.4808034338        0.4167284052
 C        -12.8813908927       -1.3074236572        0.8309775211
 C        -11.8162459974        0.8129821716       -0.2091536879
 C        -12.8123674442        1.6761897499       -0.6436140898
 C        -12.4682104022        2.8770114571       -1.2439374838
 C        -13.5056206386        3.8770493792       -1.7325056875
 C        -13.3143585562        5.2031198921       -0.9826338736
 C        -13.3233614546        4.1007911571       -3.2405075467
 C        -14.9409224489        3.3995352860       -1.4947175287
 C        -11.1092473645        3.1751452499       -1.4121636929
 C        -10.0986840999        2.3342945896       -0.9927751771
 C        -10.4548685633        1.1492123242       -0.3667911002
 N         -9.6676058756        0.1265892639        0.1252281454
 C         -8.2700710565        0.0906237859        0.1219190188
 C         -7.5967755501       -1.0429802955       -0.3310004193
 C         -6.2195467750       -1.0798213422       -0.3277825851
 C         -5.4688528004        0.0150810563        0.1083469379
 C         -4.0090108397       -0.0307296062        0.0912193200
 C         -3.3238956560       -1.2084376067        0.4083203497
 C         -1.9520508339       -1.2675545311        0.3608687652
 C         -1.1922400388       -0.1518779747       -0.0205613686
 C          0.2550218384       -0.2132910755       -0.1102853522
 C          1.0283206710        0.8584131342        0.3454793172
 C          2.4074636740        0.8273528549        0.3795617979
 C          3.1236713365        1.9176539153        1.0483122310
 C          2.7959079966        3.2496633634        0.7933528508
 C          3.4673525800        4.2752311972        1.4303315454
 C          4.4665211813        3.9916290570        2.3471923734
 C          4.7851845538        2.6721657467        2.6267437536
 C          4.1237143987        1.6447483224        1.9850122386
 C          3.0968543724       -0.3220978911       -0.1210692147
 C          4.5186315728       -0.3612305163       -0.2480760001
 C          5.2752979675        0.8074746394       -0.5362127025
 C          6.6344938852        0.7986629317       -0.5654340446
 C          7.3642341244       -0.3897062558       -0.2883625265
 C          8.7640751507       -0.4868585115       -0.2018819186
 N          9.4077688794       -1.6587394604       -0.2844232931
 C         10.7093373947       -1.3849226128       -0.2334345802
 C         11.7944570751       -2.3029242096       -0.3365110485
 C         11.5605932138       -3.6654954635       -0.5381686364
 C         12.6140450404       -4.5403390330       -0.6675564343
 C         13.9148555451       -4.0513692065       -0.6030363932
 C         14.1559188776       -2.7094770647       -0.3999549758
 C         13.1088812491       -1.7893482067       -0.2508083268
 C         13.3273198126       -0.3755475404        0.0041719566
 C         14.6131780559        0.1455920519        0.1761551868
 C         14.8358306731        1.4738820066        0.4651415621
 C         13.7580715959        2.3447954766        0.6142975146
 C         12.4800446308        1.8809510802        0.4434444579
 C         12.2269818045        0.5330559648        0.1173950745
 C         10.9308233145        0.0069042496       -0.0720039673
 N          9.6792616054        0.5696180792       -0.0591434766
 C          9.3324600746        1.9173211769        0.1359486726
 C          9.6896595691        2.8789798718       -0.8070240022
 C          9.3138893923        4.1956202413       -0.6186988011
 C          8.5818938114        4.5599124622        0.5008031247
 C          8.2290265867        3.6034601360        1.4391250192
 C          8.6016815006        2.2845675918        1.2635112945
 C          6.6066751875       -1.5885598638       -0.1299925657
 C          5.2483319608       -1.5745064623       -0.1204578414
 C          2.3102966230       -1.4052103897       -0.5588759970
 C          0.9361957618       -1.3673838956       -0.5901647324
 C          0.2149346350       -2.4838231018       -1.2193751420
 C          0.5156434201       -3.8011109013       -0.8796538584
 C         -0.1488145102       -4.8524817144       -1.4829010604
 C         -1.1157122503       -4.6054704118       -2.4431401736
 C         -1.4103927794       -3.2996007304       -2.8004331840
 C         -0.7519228068       -2.2467492478       -2.1955854672
 C         -1.8795260633        1.0371367898       -0.3014211652
 C         -3.2526315407        1.0952345006       -0.2481850408
 C         -6.1545919886        1.1484386736        0.5517688566
 C         -7.5323277898        1.1857278719        0.5686447409
 H        -12.5878380821       -4.1076431571        3.6941532095
 H        -14.3305147176       -4.3487255361        3.7828705701
 H        -13.6520071974       -2.7257003086        3.9418743639
 H        -15.8173841149       -3.6929097342        1.9622427055
 H        -15.2778582079       -2.0264558282        2.1289461525
 H        -15.2354824281       -2.8247080042        0.5461942777
 H        -14.2763558900       -5.5189450642        1.4995824337
 H        -13.5647991917       -4.6852455999        0.1145819439
 H        -12.5342470662       -5.2715461175        1.4179311952
 H        -11.0093164533       -3.7913854612        2.1356475385
 H         -9.1797147102       -2.3533270035        1.4322181677
 H        -13.8959145855       -0.9832716614        0.6702775718
 H        -13.8409464107        1.3872743192       -0.5061892076
 H        -14.0556051194        5.9294915958       -1.3096587654
 H        -12.3272103493        5.6206794432       -1.1605295592
 H        -13.4309182005        5.0487921130        0.0882276985
 H        -13.4259146859        3.1584543306       -3.7749305580
 H        -12.3446855312        4.5149594073       -3.4661782777
 H        -14.0779806800        4.7919035742       -3.6105909264
 H        -15.6380931383        4.1512405324       -1.8597189297
 H        -15.1334937182        3.2504758033       -0.4347610461
 H        -15.1378892247        2.4723863578       -2.0280930806
 H        -10.8262477133        4.0987656983       -1.8936434235
 H         -9.0643063551        2.5925019161       -1.1623829888
 H         -8.1633777662       -1.8819205960       -0.7068827527
 H         -5.7110968906       -1.9556269930       -0.7028797212
 H         -3.8817871380       -2.0775975415        0.7251816841
 H         -1.4489742520       -2.1786088007        0.6474782899
 H          0.5215656649        1.7109057539        0.7759224498
 H          2.0289307409        3.4770074889        0.0665009455
 H          3.2122499059        5.3020383680        1.2102115318
 H          4.9869512282        4.7961561014        2.8460639188
 H          5.5501925414        2.4423981891        3.3544658313
 H          4.3637424652        0.6182933437        2.2203001390
 H          4.7497765412        1.7139315079       -0.7962637211
 H          7.1567113033        1.6961759027       -0.8547720432
 H         10.5357734571       -3.9979798197       -0.5930520557
 H         12.4375408710       -5.5941992003       -0.8227569189
 H         14.7486071875       -4.7299460243       -0.7125745104
 H         15.1820107826       -2.3799660353       -0.3607845353
 H         15.4699035164       -0.5036105481        0.0926551831
 H         15.8451355659        1.8366366467        0.5900635351
 H         13.9287874431        3.3808289235        0.8670674969
 H         11.6505946273        2.5556517039        0.5789994530
 H         10.2542968212        2.5832247165       -1.6793460908
 H          9.5883255710        4.9387831682       -1.3523981791
 H          8.2858956588        5.5884958702        0.6400127241
 H          7.6593879189        3.8860225696        2.3107877746
 H          8.3243012970        1.5294339308        1.9835918504
 H          7.1580684978       -2.5030699306        0.0195491073
 H          4.7095161752       -2.4929556686        0.0587494913
 H          2.8088169817       -2.2632212162       -0.9856846950
 H          1.2596043257       -3.9959873622       -0.1201065342
 H          0.0874800291       -5.8689746209       -1.2025575693
 H         -1.6345079743       -5.4273994571       -2.9141925109
 H         -2.1564845803       -3.1015195825       -3.5563463384
 H         -0.9765080763       -1.2307567164       -2.4858355926
 H         -1.3216933823        1.9100843680       -0.6086828928
 H         -3.7571574464        2.0136351354       -0.5122403972
 H         -5.5971380752        1.9964959614        0.9209991162
 H         -8.0491225490        2.0540348752        0.9495390799
