141
 energy: -204.884680343341 gnorm: 0.000058045101 xtb: 6.7.1 (edcfbbe)
C          -12.47674759336690       -4.31428666627101        2.48323940092064
C          -12.61770205121099       -3.81915586548387        1.03685846828328
C          -14.02877315147960       -3.24941948743157        0.86697739539139
C          -12.46052730513489       -4.99787746280947        0.06583182439191
C          -11.53333760829073       -2.78954153908623        0.75324885336625
C          -10.19045001904936       -3.17068575605690        0.87892632058997
C           -9.14028723167632       -2.30590308796259        0.64871162815786
C           -9.43879608884508       -1.00194558305428        0.28488481266645
C          -10.78132370684752       -0.59927820252669        0.12560948709823
C          -11.81862673006908       -1.49139970775069        0.36437628286027
C          -10.74708833616415        0.77207051730772       -0.30153326196800
C          -11.74001850852964        1.69816452623875       -0.59384004917974
C          -11.39147315845304        2.98566975240787       -0.96615252946244
C          -12.42428845269624        4.05088309489380       -1.30531899253251
C          -12.19610064384624        4.53353486723124       -2.74476471945563
C          -13.86096236813393        3.53136739015148       -1.20199912242651
C          -12.27349633127584        5.22843643603512       -0.33183847144902
C          -10.03179067895458        3.32127179323631       -1.02153175903153
C           -9.02471993524295        2.42227953723384       -0.73638863051417
C           -9.38532786220790        1.12956218560095       -0.38903303395396
N           -8.60143987316937        0.05022328018191       -0.03034783995585
C           -7.20320501316242        0.02889040300700        0.01000654137127
C           -6.46107088907441        0.48715142945158       -1.07554668462507
C           -5.08217876234278        0.47126192427230       -1.02958902948200
C           -4.40789536194099       -0.00160356083415        0.09464743943024
C           -2.94006022158496       -0.00507720800446        0.14188982707183
C           -2.26494680568370        0.38037735203072        1.29783657092352
C           -0.88540346570857        0.39341249698471        1.33773412356615
C           -0.13776700679932        0.00262139149228        0.23029175689056
C            1.33282076163417        0.03305552714713        0.27413541234393
C            1.97107151956560        1.18660313856073        0.71206536676902
C            3.35437412352359        1.30979577785236        0.71936066305294
C            3.95883542334455        2.58353272026109        1.14569529797560
C            4.91056809393461        3.22353511218989        0.35623619742607
C            5.46649859977718        4.42147160492293        0.76287045656202
C            5.07981994421750        4.99872611713698        1.96105723853735
C            4.12552200756942        4.37588003846164        2.74722158151239
C            3.56538074655488        3.17879346596771        2.34080573877348
C            4.13181175473331        0.22995941640970        0.27963190889908
C            5.60240511408062        0.27687657250377        0.28810685338088
C            6.31939804899817       -0.10460060040760       -0.84274774382816
C            7.69898364564880       -0.06560641444430       -0.85696725236483
C            8.40067368361725        0.34319631896423        0.27528915361550
C            9.85104580221965        0.42333883005711        0.32200735242865
N           10.49329113719188        1.36296834503492        0.96920709182534
C           11.81475531663851        1.12044665976655        0.77035253047379
C           12.92069278302656        1.88615327429562        1.23331745857685
C           12.73117747047058        3.04965231719736        1.98630807670977
C           13.80955657827799        3.79331969189533        2.39526571813621
C           15.09523146969262        3.38147765909435        2.04975998434339
C           15.29304718077785        2.23614994554541        1.31463474261357
C           14.21725038349447        1.44328254833106        0.88610330504776
C           14.39370391058297        0.20980300270283        0.13919898557420
C           15.66853459019986       -0.29627748308832       -0.15149620229780
C           15.84788172175778       -1.48515926593485       -0.81785734595430
C           14.74585231739647       -2.23768753553183       -1.21078823936645
C           13.47954152868190       -1.77417848929827       -0.95284151149445
C           13.27428020696822       -0.54908420092083       -0.30195009481635
C           11.98479214351184       -0.01988252882961       -0.01330252101998
N           10.71065291591185       -0.45373315274880       -0.30503456109564
C           10.30950158005470       -1.55887447594145       -1.08000984841147
C            9.57682400654953       -2.58237521838410       -0.49057641582360
C            9.14732145042901       -3.64801073840489       -1.26069350262699
C            9.44663003198007       -3.69744896843184       -2.61195019048486
C           10.17764477822007       -2.67650857644148       -3.19829762165650
C           10.60741849430096       -1.60412353998092       -2.43902012854584
C            7.68375642395228        0.73166551010167        1.40825205287946
C            6.30658310144721        0.69530799892145        1.41586036156819
C            3.49368757181489       -0.92636248551574       -0.15184611084899
C            2.11036634764079       -1.04986844365010       -0.15762694054558
C            1.50225724245618       -2.32363538472196       -0.57778418093290
C            0.53429967682312       -2.94516344669238        0.20698367874165
C           -0.02592971730899       -4.14424195331818       -0.19026759605775
C            0.37155862730782       -4.74141059760657       -1.37515286366037
C            1.34087051881072       -4.13661730842524       -2.15703259715324
C            1.90558588535960       -2.93861526688543       -1.75963739339423
C           -0.81121298830469       -0.38378248432090       -0.92596176514612
C           -2.18980919055882       -0.38235199719742       -0.97030981323250
C           -5.15906727730344       -0.46243836618814        1.17413816323310
C           -6.53837089013669       -0.44841715266088        1.13664223697184
H          -12.56638478911226       -3.47970542503390        3.17566878738322
H          -11.51455192277821       -4.79101011736060        2.64801971254594
H          -13.25767511794871       -5.03721360775259        2.71050834471344
H          -14.76141351891943       -4.02275596390227        1.08986282786472
H          -14.19943963615711       -2.41875640922738        1.54792873475067
H          -14.19520163087444       -2.91449050892424       -0.15422997008768
H          -12.53950165035211       -4.64997278947314       -0.96213638955214
H          -11.49732082872385       -5.48578107258336        0.18619170497262
H          -13.24041360613874       -5.73606747201950        0.24188900739113
H           -9.95276553862913       -4.18441647484585        1.16382545693808
H           -8.11896840360367       -2.64488340668169        0.73866637950988
H          -12.83189127648117       -1.14943531613750        0.23470478926785
H          -12.76957546014449        1.39038606617336       -0.51790876353582
H          -12.28261337748394        3.69943340478683       -3.43818274619295
H          -11.21031789726078        4.97423835720798       -2.86431078471251
H          -12.93839704367922        5.28313458826116       -3.01163447240731
H          -14.08705548206886        3.20516434678725       -0.18946100963567
H          -14.02844875083768        2.70545562559000       -1.88947951534480
H          -14.55459261746969        4.32933389584800       -1.46008989378023
H          -13.01923201359176        5.99118700911960       -0.54683064014713
H          -11.29011190202638        5.68379195810465       -0.40841442516545
H          -12.41213032826386        4.88839366301776        0.69243471782261
H           -9.74555714738401        4.32582175464320       -1.29398901631887
H           -7.98940538702325        2.72704148147892       -0.77256999451814
H           -6.97339165964107        0.84327399241738       -1.95688190033328
H           -4.51701809689736        0.84367052341253       -1.87137681814721
H           -2.82878325506330        0.69455993196579        2.16436324332196
H           -0.37627356955368        0.69360525798302        2.24278978016642
H            1.37008766208175        2.03265388952529        1.01493701716571
H            5.20699638351773        2.78230066230756       -0.58403701121933
H            6.20585260037213        4.90645508745752        0.14275225100850
H            5.51936676590551        5.93218314479359        2.27996720583135
H            3.81790401453977        4.82312454522858        3.68148366369043
H            2.83062953865289        2.68666956683680        2.96253861976698
H            5.78580437353265       -0.40851512827131       -1.73217976119636
H            8.22489145054174       -0.32907561901227       -1.76222390800330
H           11.71851584828492        3.33741912910725        2.22256741378356
H           13.66852229814753        4.69329762450502        2.97552559222765
H           15.94720409288569        3.96795771007535        2.36262335016114
H           16.30606064820956        1.95938765092085        1.06890253376899
H           16.54509743152288        0.24862590133162        0.15967507002026
H           16.84619088526837       -1.84227938696112       -1.02397852147908
H           14.88421510499102       -3.18427824219708       -1.71212831346089
H           12.62925429668785       -2.37148337803613       -1.24152234961324
H            9.34673404236193       -2.53248715604774        0.56329846237988
H            8.57840356189252       -4.44274209111924       -0.80225187340522
H            9.11013958149112       -4.53106129256434       -3.20955022156925
H           10.41036997209533       -2.71203502391141       -4.25203412856839
H           11.17484100335489       -0.80054896799833       -2.88579158691486
H            8.23195371732578        1.06083686616015        2.27696878951102
H            5.76581494803111        0.98424942801367        2.30469400509253
H            4.09536959541775       -1.77193811211205       -0.45513773808210
H            0.22927247869083       -2.48849305878417        1.13705959917365
H           -0.77640355894032       -4.61580384777314        0.42728296417931
H           -0.07105382428442       -5.67602171582381       -1.68677795876253
H            1.65655452623489       -4.59910973819133       -3.08119609872522
H            2.65225602744285       -2.46131959891139       -2.37868176288593
H           -0.24568192914116       -0.67600586670649       -1.79859570979116
H           -2.69516815968187       -0.69650875392939       -1.87193307513164
H           -4.65441513462743       -0.84629411755134        2.04867735305460
H           -7.11070777123602       -0.79270117059071        1.98516620542376
