  141
       -204.88649732
 C        -13.9087342099       -4.5685063559        0.0654386554
 C        -13.9424835197       -3.3939637839        1.0534912888
 C        -13.8103774598       -3.9187139724        2.4902594347
 C        -15.3035517401       -2.7043822136        0.9250203560
 C        -12.7813674450       -2.4562157277        0.7554392169
 C        -11.4732397581       -2.9505453214        0.8498797591
 C        -10.3586471613       -2.1747807304        0.6062266417
 C        -10.5533393582       -0.8465569236        0.2603939269
 C        -11.8598597365       -0.3305723775        0.1312677995
 C        -12.9638328072       -1.1347584265        0.3835410269
 C        -11.7178143388        1.0378166022       -0.2831243032
 C        -12.6338716264        2.0484240278       -0.5449708304
 C        -12.1844531546        3.3067447679       -0.9089814694
 C        -13.1292096690        4.4614656883       -1.2099999087
 C        -12.8849352762        4.9548911244       -2.6430654714
 C        -14.6026364708        4.0619235557       -1.0917368388
 C        -12.8635416035        5.6005129498       -0.2152130877
 C        -10.8025460573        3.5268753534       -0.9880278440
 C         -9.8701921649        2.5420218596       -0.7341205530
 C        -10.3325228901        1.2802157222       -0.3938522684
 N         -9.6361499516        0.1344430381       -0.0617540049
 C         -8.2438003245       -0.0002886708       -0.0356003574
 C         -7.4769248306        0.4045821781       -1.1251173955
 C         -6.1028723976        0.2823984644       -1.0899284469
 C         -5.4592182413       -0.2439201419        0.0282065320
 C         -3.9946318253       -0.3485689530        0.0699161360
 C         -3.2920962251        0.0132884323        1.2170128048
 C         -1.9143189517       -0.0593482014        1.2521013664
 C         -1.1983887004       -0.5176603425        0.1495702014
 C          0.2719884592       -0.5741304667        0.1881945804
 C          0.9783006972        0.5526946289        0.5900707933
 C          2.3660281296        0.5890841305        0.5974202120
 C          3.0555205723        1.7972540875        1.0819647658
 C          2.7054861230        3.0529402340        0.5945913856
 C          3.3454268809        4.1886741826        1.0557624116
 C          4.3331239263        4.0870867915        2.0202428705
 C          4.6775970623        2.8428174877        2.5218435264
 C          4.0474962682        1.7055179087        2.0547202504
 C          3.0756484996       -0.5429438201        0.1750003455
 C          4.5439922507       -0.5352716088        0.0838069563
 C          5.2016067702        0.4949027995       -0.5840302728
 C          6.5774504865        0.5171016830       -0.6723523505
 C          7.3369956586       -0.4898247524       -0.0781240170
 C          8.7889783875       -0.5165148215       -0.1208179277
 N          9.4813286417       -1.6252535609       -0.2044003333
 C         10.7867005593       -1.2522065542       -0.2367020558
 C         11.9302150091       -2.0879160853       -0.3709587993
 C         11.8030121806       -3.4752726126       -0.4957532120
 C         12.9158549916       -4.2610790007       -0.6612244088
 C         14.1740333735       -3.6639010412       -0.7092340491
 C         14.3109916511       -2.3014696327       -0.5813180331
 C         13.1988427841       -1.4651215221       -0.3993449645
 C         13.3128007380       -0.0276575769       -0.2224050156
 C         14.5610175967        0.6078996918       -0.1603319884
 C         14.6819379421        1.9600347789        0.0559796472
 C         13.5458746214        2.7415063010        0.2399711061
 C         12.3036657664        2.1602428754        0.1771987541
 C         12.1572246224        0.7882423271       -0.0733615805
 C         10.8949381096        0.1349793269       -0.1507855338
 N          9.5998371797        0.5981904711       -0.0868859127
 C          9.1463985220        1.9300624480       -0.0202805793
 C          9.3893139476        2.8002783738       -1.0793252772
 C          8.9112117852        4.0961245450       -1.0238743362
 C          8.1893789695        4.5256341946        0.0782624943
 C          7.9479258531        3.6579104405        1.1297475189
 C          8.4224092766        2.3596801080        1.0855432922
 C          6.6783178934       -1.5438823624        0.5562611413
 C          5.3018041535       -1.5674232410        0.6322330516
 C          2.3703283070       -1.6773923572       -0.2045490459
 C          0.9818314901       -1.7176518381       -0.2013693424
 C          0.2948519222       -2.9644626089       -0.5789268414
 C         -0.7054649729       -3.4996031179        0.2284743985
 C         -1.3403734350       -4.6738728629       -0.1286230007
 C         -0.9867532291       -5.3310047800       -1.2955049276
 C          0.0133391226       -4.8116915723       -2.0998211060
 C          0.6532163460       -3.6390615906       -1.7425625549
 C         -1.8995346870       -0.8856388000       -0.9960257719
 C         -3.2756193065       -0.7952788378       -1.0368785230
 C         -6.2352686424       -0.6537033659        1.1104639920
 C         -7.6097913441       -0.5355656264        1.0827549975
 H        -12.9854129502       -5.1343687761        0.1535527227
 H        -13.9868381342       -4.2013343073       -0.9559354314
 H        -14.7414375566       -5.2428413896        0.2555098174
 H        -14.6479463189       -4.5705892209        2.7303451672
 H        -12.8919669747       -4.4833334217        2.6242532832
 H        -13.8058246716       -3.0886895439        3.1938424934
 H        -15.3865721012       -1.8713682663        1.6193118445
 H        -15.4653147186       -2.3430421370       -0.0878622980
 H        -16.0937195666       -3.4158422902        1.1572544565
 H        -11.3164336189       -3.9836514802        1.1207206752
 H         -9.3678229582       -2.5990083554        0.6726963380
 H        -13.9470935718       -0.7074620734        0.2781330571
 H        -13.6842267672        1.8280742538       -0.4517348431
 H        -13.0531372711        4.1466957347       -3.3519370663
 H        -11.8677348721        5.3139717545       -2.7720347257
 H        -13.5656192026        5.7700363581       -2.8804947980
 H        -14.8407260222        3.7400325135       -0.0806197387
 H        -14.8482917175        3.2636359610       -1.7882298072
 H        -15.2309166210        4.9187629715       -1.3274510642
 H        -13.5535919934        6.4228231018       -0.3927918396
 H        -11.8502873062        5.9808173081       -0.3091551031
 H        -13.0013528176        5.2473130628        0.8045819644
 H        -10.4375287483        4.5074730599       -1.2534016957
 H         -8.8135844203        2.7584311717       -0.7873394952
 H         -7.9670085439        0.8043504358       -2.0003683528
 H         -5.5161603835        0.6133816533       -1.9343522626
 H         -3.8319393795        0.3773780662        2.0793145803
 H         -1.3825117547        0.2257729446        2.1490297444
 H          0.4294499250        1.4296773376        0.9039851924
 H          1.9392426373        3.1336080217       -0.1635679478
 H          3.0709738347        5.1569471175        0.6626311922
 H          4.8263991606        4.9769205935        2.3836726164
 H          5.4366438134        2.7565112767        3.2860390183
 H          4.3128208008        0.7376724907        2.4543410779
 H          4.6250212338        1.2787446661       -1.0526749411
 H          7.0555119920        1.3109846414       -1.2251997200
 H         10.8096323609       -3.8950673487       -0.4638326050
 H         12.8226590470       -5.3326542685       -0.7590211441
 H         15.0526259031       -4.2773214222       -0.8487630620
 H         15.3044775021       -1.8844316886       -0.6290287981
 H         15.4633674415        0.0291935646       -0.2742304936
 H         15.6612575572        2.4137578411        0.0972915711
 H         13.6391359379        3.7995002163        0.4361077318
 H         11.4272174865        2.7670404697        0.3407843538
 H          9.9526052416        2.4531971429       -1.9334710803
 H          9.1004134794        4.7705449531       -1.8455365345
 H          7.8151538527        5.5373589197        0.1163547471
 H          7.3882270578        3.9926934045        1.9887132347
 H          8.2348175214        1.6733149515        1.8976906950
 H          7.2704959929       -2.3354014189        0.9884404097
 H          4.8034600341       -2.3794320200        1.1423852994
 H          2.9198672953       -2.5543758131       -0.5164180477
 H         -0.9764518821       -2.9961156592        1.1449041386
 H         -2.1143399010       -5.0792571087        0.5067065163
 H         -1.4870867358       -6.2463115211       -1.5754213610
 H          0.2952607882       -5.3215112741       -3.0097554979
 H          1.4248997189       -3.2284955965       -2.3784507795
 H         -1.3571663260       -1.2328976575       -1.8632742703
 H         -3.8047035171       -1.0923522115       -1.9307172955
 H         -5.7542646124       -1.0784886071        1.9794163197
 H         -8.2010204504       -0.8410955330        1.9331626387
