141
 energy: -204.886745910335 gnorm: 0.000064422461 xtb: 6.7.1 (edcfbbe)
C          -13.82759468507423       -4.62144586598685        0.10307900218761
C          -13.89470987263339       -3.44188734154413        1.08347102640678
C          -13.77132014497638       -3.95600870905178        2.52481903052728
C          -15.26628626001038       -2.77790067297290        0.93336132606209
C          -12.74707066450270       -2.48489098003942        0.79442586601242
C          -11.43136157067256       -2.95663220423653        0.89825120184627
C          -10.32836923056148       -2.16216629241816        0.66154626737830
C          -10.54285531916187       -0.83737248508719        0.31404770353069
C          -11.85724714591096       -0.34388351590396        0.17690394473030
C          -12.94913601553966       -1.16660980514901        0.42147421525056
C          -11.73662460770038        1.02632675577188       -0.23811017127263
C          -12.66882710907796        2.01938961807741       -0.50999491541171
C          -12.23939236576338        3.28411923556436       -0.87585825466190
C          -13.20234568427763        4.41845194840194       -1.19592555172892
C          -12.95478411432212        4.89802611803377       -2.63325031082290
C          -14.66932982486526        3.99412029528920       -1.08433364182636
C          -12.96569346865321        5.57449998656896       -0.21382288760723
C          -10.86108753686860        3.52908676369129       -0.94383852562515
C           -9.91311838188225        2.56216092587539       -0.67922209214811
C          -10.35516206759715        1.29271286462982       -0.34020096477066
N           -9.64079762147977        0.15960233151435       -0.00265286210393
C           -8.24667144039758        0.04466073033023        0.01532398505927
C           -7.49224634000096        0.46774052489367       -1.07611309739394
C           -6.11686669214495        0.36070152458779       -1.05237840780106
C           -5.45827304517580       -0.17061598573410        0.05488672346005
C           -3.99318731946266       -0.27091378118252        0.07873128008704
C           -3.27674497628445        0.05751363361056        1.22737762444845
C           -1.89883917293729       -0.02067869304602        1.24589006784262
C           -1.19559612679397       -0.44899131095033        0.12327017848665
C            0.27437840917557       -0.51815270555460        0.14530508156716
C            0.99561788937394        0.58385264638107        0.58755240576136
C            2.38372463390645        0.60612334663130        0.58471935903837
C            3.08855651503053        1.78401285026871        1.11929522848280
C            2.74656530866158        3.06447442347791        0.69475706132917
C            3.39754985042241        4.17157558949453        1.20724915816192
C            4.38878624147287        4.01578388675241        2.16079494885521
C            4.72675602569475        2.74596072062151        2.59879351830293
C            4.08528649714211        1.63755809576763        2.08048582311672
C            3.07841123249603       -0.51327288416727        0.10741742003142
C            4.54619967458662       -0.51693726024642        0.00864301195174
C            5.21281686470153        0.53384080431638       -0.61665654491399
C            6.58896561542548        0.54825948249277       -0.70340496839194
C            7.33975916983313       -0.48753167190123       -0.14894201915337
C            8.79164758217185       -0.52271818342626       -0.18069183318047
N            9.47684683900593       -1.63421942481184       -0.28615181814251
C           10.78515575068319       -1.27108074428616       -0.28893510445999
C           11.92386725791426       -2.11318246563678       -0.42358009604862
C           11.78698840728380       -3.49590043285927       -0.58450130799359
C           12.89612837040289       -4.28809277596904       -0.74400428355197
C           14.16038285144962       -3.70197378184322       -0.74856250988090
C           14.30659913593544       -2.34419953232651       -0.58604837632457
C           13.19808067545500       -1.50154426741511       -0.41087385427433
C           13.32047957123189       -0.06909313330397       -0.20167604718532
C           14.57262412127650        0.55500689226552       -0.10959555717678
C           14.70120747013135        1.90179652488933        0.13394337282777
C           13.56881831149819        2.68899761613523        0.31601010574367
C           12.32308962131393        2.11909623170906        0.22477504276685
C           12.16923654293489        0.75318127206404       -0.05327053147138
C           10.90296896045624        0.11235912429093       -0.16318195154911
N            9.61063716950673        0.58396535155418       -0.10471129833651
C            9.16612034400355        1.91659715755528        0.00094963322102
C            9.41409899954695        2.81599791235348       -1.03220552204131
C            8.94381518293276        4.11254752709318       -0.93856553248564
C            8.22479685957036        4.51374688953497        0.17599205734713
C            7.97892083890140        3.61725046396268        1.20201842972302
C            8.44556914033875        2.31805895447987        1.11946180822021
C            6.67138505193338       -1.56283384184611        0.43837359076413
C            5.29479741468722       -1.57860215884318        0.51171047715353
C            2.35846967422203       -1.62342248140485       -0.31401508754914
C            0.96983508852134       -1.65096050628098       -0.29842855468129
C            0.26882282847069       -2.87631218436934       -0.71829812115684
C           -0.72386480287138       -3.43833524907981        0.08020177906815
C           -1.37093299217964       -4.59326797917802       -0.31601290668989
C           -1.03733695760619       -5.20380045567156       -1.51373049303580
C           -0.04500472535270       -4.65763022817730       -2.30980889931470
C            0.60720099642511       -3.50453319083629       -1.91345595688855
C           -1.91029918662958       -0.77878777326806       -1.02573838236760
C           -3.28637039325179       -0.68555259231950       -1.04852913424232
C           -6.22184385216120       -0.59589729584037        1.14023506456389
C           -7.59769022316542       -0.49077470382439        1.12496608715983
H          -12.89986656666835       -5.17617618457397        0.21201107119531
H          -13.89040255434402       -4.26140568315259       -0.92181644389607
H          -14.65553148642191       -5.30488787091156        0.28075404217751
H          -14.59466766175898       -4.62919181628482        2.75513002940229
H          -12.83999012903133       -4.49452667299275        2.67609953721446
H          -13.80037655402477       -3.12276721374861        3.22403232308842
H          -15.37418888287268       -1.94352556496879        1.62256361798255
H          -15.42042737520142       -2.42399370219219       -0.08337044414584
H          -16.04659009277707       -3.50251432748135        1.15819474283124
H          -11.25877042821196       -3.98683588419811        1.17063787779794
H           -9.33126012484681       -2.57027276359921        0.73416063596844
H          -13.93860974111697       -0.75589207439427        0.30872678268200
H          -13.71572794147138        1.78044312948772       -0.42399665908951
H          -13.09882313775476        4.07690147996103       -3.33256823289212
H          -11.94407856118485        5.27674949809939       -2.75707369450968
H          -13.65023333278806        5.69514892158139       -2.88832070725985
H          -14.90835080317118        3.67462298162240       -0.07263374865650
H          -14.89658827999932        3.18719417304244       -1.77717391671081
H          -15.31073116395974        4.83844247148264       -1.32974894491947
H          -13.66029519057851        6.38732950197483       -0.41627287246726
H          -11.95460170321840        5.96367340795632       -0.29460029438764
H          -13.11899009145563        5.23533713780569        0.80864760863157
H          -10.51157268546154        4.51509795602037       -1.21013171733332
H           -8.86027390266897        2.79775190846319       -0.72478004183906
H           -7.99307423330812        0.86854123447820       -1.94476896116892
H           -5.54117304608378        0.70650503980779       -1.89839250846113
H           -3.80544581554626        0.39887010701923        2.10571677455500
H           -1.35728905038430        0.23585798681971        2.14562017551539
H            0.45868698616525        1.45215388501229        0.94333765866982
H            1.97722355819376        3.18771680473014       -0.05447913710709
H            3.12854063418594        5.15991486055926        0.86337223291740
H            4.88960871269762        4.88330978359808        2.56556064252369
H            5.48909098586160        2.61690412411999        3.35365535293174
H            4.34489428876009        0.64954267326558        2.43152383264800
H            4.64309434494259        1.34144841198529       -1.05225231422151
H            7.07367055410029        1.36019998283459       -1.22314842510826
H           10.78935118515797       -3.90672414157423       -0.58478343889932
H           12.79559120027072       -5.35607567538089       -0.86991969590232
H           15.03650587956574       -4.32050243269157       -0.88095534314155
H           15.30484967469170       -1.93614258983489       -0.59931411786085
H           15.47191264766580       -0.02868451671940       -0.22222304408342
H           15.68341668969367        2.34660045867140        0.19781617685989
H           13.66761134522325        3.74253641616975        0.53243003080082
H           11.44921711876369        2.73026792141679        0.38562660295064
H            9.97437305804643        2.49037961586093       -1.89673617033750
H            9.13613868385067        4.80950298303273       -1.74047637298512
H            7.85608133642393        5.52595605992290        0.24360959277780
H            7.42098975287646        3.92975951419588        2.07043149662235
H            8.25335092435650        1.60909500636007        1.91084375151288
H            7.25701773460943       -2.37626454229091        0.83744793318600
H            4.78915135609928       -2.40739052628741        0.98644204844809
H            2.89632312870647       -2.49180504774535       -0.66756918480946
H           -0.97938971829604       -2.97109649350602        1.02001138939718
H           -2.13901363251818       -5.01982534978837        0.31254433165850
H           -1.54743916402088       -6.10370394954124       -1.82428109699206
H            0.22108597760621       -5.13096813728691       -3.24390956519301
H            1.37279389674034       -3.07250655476838       -2.54247130657365
H           -1.37851802500721       -1.10000649627206       -1.90935817899715
H           -3.82502187279880       -0.95667317549088       -1.94482108557818
H           -5.73036634469925       -1.02406770562919        2.00160660966491
H           -8.17842934370553       -0.80833533016876        1.97816986321419
