  61
        -96.50193086
 C          8.2078706983        0.0377584488        1.3334462404
 C          7.3183184970       -0.8996884991        1.8368896650
 C          6.0240288680       -0.9563166836        1.3635049166
 C          5.5837478291       -0.0679008277        0.3717687930
 C          4.2128081972       -0.1029737991       -0.0955997331
 C          3.5112621232       -1.3296331898       -0.3464340105
 C          4.2143444808       -2.5320386329       -0.4948016317
 C          3.5701220784       -3.7172986312       -0.8007790672
 C          2.2021364599       -3.7208395065       -1.0132940272
 C          1.4864236854       -2.5401019796       -0.9103616187
 C          2.1003522979       -1.3363385218       -0.5495818616
 C          1.3372012337       -0.1160571451       -0.4875748974
 C         -0.0914995842       -0.1012154566       -0.3578792110
 C         -0.7676499601       -1.0708419577        0.4097752333
 C         -2.1294403720       -1.0366668120        0.5677689424
 C         -2.8955121068       -0.0323204621       -0.0399353250
 N         -4.2752111358       -0.0028204755        0.1116628216
 C         -4.9993986784       -1.1956147725        0.2286707603
 C         -6.0871371399       -1.2771740736        1.0981842918
 C         -6.8034255334       -2.4531833857        1.2047799729
 C         -6.4465764860       -3.5625051387        0.4550529730
 C         -5.3660678633       -3.4864407254       -0.4090764638
 C         -4.6466257187       -2.3135405494       -0.5275932865
 C         -4.9563963924        1.2211478313        0.1541659453
 C         -6.2023778953        1.3533991536       -0.4587366230
 C         -6.8750724239        2.5585644387       -0.4089556288
 C         -6.3176409761        3.6464004854        0.2437969562
 C         -5.0793230454        3.5196519564        0.8522462466
 C         -4.4006676990        2.3172254619        0.8137271137
 C         -2.2328880791        0.9475134515       -0.7915256312
 C         -0.8697107902        0.9191931485       -0.9369074132
 C          2.0709994918        1.0944041876       -0.5141134169
 N          1.5716655260        2.3188029586       -0.5946324231
 S          2.7945016605        3.4057353917       -0.4512672773
 N          4.0028387812        2.3245791840       -0.2425324350
 C          3.5033801788        1.0961022949       -0.3084835242
 C          6.4872843645        0.8872506794       -0.1100138542
 C          7.7827888266        0.9312770860        0.3619771305
 H          9.2219440684        0.0765580239        1.7031025328
 H          7.6364176605       -1.5852371486        2.6094122094
 H          5.3257478434       -1.6623600643        1.7899707389
 H          5.2896027452       -2.5247312395       -0.4019004533
 H          4.1406988770       -4.6287392007       -0.8997858919
 H          1.6935850039       -4.6345697344       -1.2830016104
 H          0.4340122541       -2.5416068772       -1.1507112858
 H         -0.1946812560       -1.8183448008        0.9382042249
 H         -2.6200273848       -1.7712231764        1.1901275552
 H         -6.3587847450       -0.4161807239        1.6910870083
 H         -7.6411918320       -2.5062238342        1.8840192420
 H         -7.0077416708       -4.4801890590        0.5428241973
 H         -5.0865276259       -4.3444905422       -1.0020279187
 H         -3.8136206681       -2.2496174432       -1.2120885361
 H         -6.6319664319        0.5088602689       -0.9774602610
 H         -7.8376732424        2.6509396714       -0.8894419523
 H         -6.8458774321        4.5868211495        0.2785285357
 H         -4.6407051053        4.3607559341        1.3678791312
 H         -3.4407679681        2.2162392336        1.2980085829
 H         -2.8109826839        1.7199957454       -1.2771036117
 H         -0.3773572496        1.6722329549       -1.5292254355
 H          6.1604526075        1.5802697191       -0.8680788996
 H          8.4692149583        1.6684470784       -0.0285365784
