59
 energy: -96.607069262414 gnorm: 0.000080205289 xtb: 6.7.1 (edcfbbe)
C            0.27554722118389        3.26679703202325       -0.94299058151685
C           -0.14339183614974        2.12163641144478       -1.60347868691933
C            0.52089505934542        0.92577698622352       -1.42011916386256
C            1.61094621811503        0.84978749678805       -0.55151947786078
C            2.03836460757991        2.01454178903875        0.08716635642749
C            1.37669478428282        3.21470426906701       -0.10609788455143
S            3.42712210585160        1.94301426403686        1.18193923109060
C            4.35237243342230        0.70806154246668        0.31145550908105
C            5.73615846996361        0.77060736902612        0.30710945926217
C            6.46902216178900       -0.17751890369694       -0.38367861251522
C            5.81124294649801       -1.16080503716059       -1.10671202719423
C            4.43110343165940       -1.22145119400500       -1.11025409644742
C            3.67903544614443       -0.31368423359613       -0.36495935038500
N            2.28187564702275       -0.36154482020287       -0.34065546356614
C            1.52922451345876       -1.50152882696370       -0.09279905050541
C            2.02604048943201       -2.78043635360422        0.09209918055983
C            1.13354552679869       -3.81860332697552        0.35029862020863
C           -0.25100744667027       -3.56918317373628        0.45778558530344
C           -1.22056108894103       -4.53649243742123        0.73734397075729
C           -2.56811768745111       -4.18456332951941        0.87495869466908
C           -2.97007875751107       -2.87719760636650        0.75378789195005
C           -2.01895998699229       -1.86954709275798        0.50177085308781
N           -2.41847622777722       -0.52338960595308        0.33705506183213
C           -3.18324216521039       -0.20614989269524       -0.77549335598304
C           -3.49434202296926       -1.20159391390760       -1.71372319630802
C           -4.29178493007130       -0.94523840818901       -2.80866366006895
C           -4.79983456202222        0.32664223392192       -3.02681600903651
C           -4.46363756886507        1.33746518039234       -2.15003267487521
C           -3.66181358566436        1.08347393027905       -1.04373684773203
S           -3.26492174387161        2.47656913258575       -0.04568267437011
C           -2.03438669864659        1.80593178110595        1.01461677456564
C           -1.33890152802443        2.72362744278601        1.79037761228259
C           -0.42836147845852        2.29769899665133        2.73568746552364
C           -0.27756170909222        0.93623435364918        2.95389242760123
C           -0.97328476518959        0.02275244493805        2.19329530901603
C           -1.82160862417177        0.42740179965928        1.14970793551990
C           -0.65126957317784       -2.20247836223407        0.33379319171461
N            0.21850674541670       -1.23269562204517        0.08937633257573
H           -0.24590884673012        4.20020211498080       -1.08788489992393
H           -0.98892763921030        2.16266525921007       -2.27454458006929
H            0.20537954788243        0.03904377457056       -1.94623394066543
H            1.72346169862949        4.09579413570362        0.41123648988701
H            6.22631528566815        1.56188216512839        0.85287780795180
H            7.54697254670699       -0.13646164812070       -0.37394147998928
H            6.37616599876751       -1.88018565478196       -1.67997677676573
H            3.92097754543182       -1.96312773530418       -1.70483506146660
H            3.08268889439062       -2.98341351394614        0.04645155605295
H            1.49900711553069       -4.82749126095309        0.46352248788895
H           -0.91338355354666       -5.56146204345417        0.88058022403683
H           -3.29476109406703       -4.95113566793497        1.09919868031145
H           -4.00474593285470       -2.59476889002777        0.88003695401424
H           -3.08997360629323       -2.19103701239192       -1.57695270516301
H           -4.51056208292246       -1.74389536751533       -3.50064928122749
H           -5.42942327128295        0.53200264943086       -3.87790921423149
H           -4.81305361824092        2.34663432863415       -2.30740186645059
H           -1.53213426144749        3.77479854234506        1.64078755039094
H            0.12861116939464        3.01524616518610        3.31671047154329
H            0.38454321370804        0.58251811416876        3.72910329508198
H           -0.87653049471736       -1.02662504284307        2.41350560549478
