59
 energy: -96.607983329466 gnorm: 0.000125806374 xtb: 6.7.1 (edcfbbe)
C            0.62280783031858        3.63054078765887       -1.92704487422452
C           -0.16905653883836        2.58054991348568       -2.35965886551406
C            0.21481440126596        1.27488435073958       -2.12846326500028
C            1.40002544819680        0.96487030339166       -1.45081231466238
C            2.20245975199868        2.03887196730277       -1.05275933416602
C            1.81134686472779        3.35007375415404       -1.28129577379957
S            3.76934319050466        1.82153293218518       -0.27177479451547
C            3.78085390979058        0.08517395432455        0.04113270136492
C            4.83482662097504       -0.38323723711141        0.81265781513279
C            4.93332461171603       -1.72186967959098        1.13764991886869
C            3.95173235266783       -2.59223260385157        0.69411916292593
C            2.89985962794406       -2.12894604513891       -0.06958194770301
C            2.78864402505158       -0.78152505470587       -0.42940411543749
N            1.72364679857163       -0.36720061502372       -1.21880057377370
C            0.65440139860693       -1.28909005890395       -1.39648036621209
C            0.61950408899445       -2.28089220152531       -2.34907024151783
C           -0.49009519066087       -3.13026498338011       -2.40164509391102
C           -1.55511741519865       -2.97043593458079       -1.48438424220327
C           -2.68647223279871       -3.78831728753183       -1.39238295521524
C           -3.66104196611852       -3.55831461197319       -0.42109577771075
C           -3.56377794595122       -2.49583965206014        0.45320574753874
C           -2.46569934344349       -1.63519027443986        0.36431965438409
N           -2.28312411324888       -0.43683792981540        1.11790882200436
C           -2.99856625657086        0.69272011577697        0.73047955918505
C           -4.31266769348178        0.54845065920524        0.27150911395862
C           -5.07460561365130        1.63605566439327       -0.10043871028277
C           -4.54773443632788        2.91733557121064       -0.03411459054551
C           -3.24632837428690        3.08417977229719        0.39023773080193
C           -2.47430038833384        1.99073884169814        0.76707835915025
S           -0.80530799464386        2.35333440690136        1.19693461197958
C           -0.24149587839651        0.79989243097024        1.77421930093025
C            1.05085537289546        0.75434001318713        2.28300917348464
C            1.58005089711704       -0.42761640557764        2.75646897626500
C            0.78819581438830       -1.57136375673980        2.76306226955246
C           -0.48919423006605       -1.53360159869291        2.25815008522275
C           -1.02506256714917       -0.36040650204753        1.69588702343878
C           -1.42786051996246       -1.89660661622711       -0.55797256937682
N           -0.34933185756067       -1.11915113599032       -0.51694104472769
H            0.32590901394500        4.65343715199202       -2.09588104282146
H           -1.09514853569253        2.77354836560396       -2.87963695451313
H           -0.41106859473823        0.47241660625082       -2.48384261179997
H            2.46013906514813        4.14532606448374       -0.94668992413677
H            5.57568103003844        0.32479469160352        1.15262522050666
H            5.75997058931087       -2.07643146945506        1.73294098346789
H            4.00042453266815       -3.64102512297943        0.94412447038460
H            2.13852443962690       -2.81885387569376       -0.39579152473090
H            1.44117246527163       -2.39356569386438       -3.03975154151942
H           -0.54468179116833       -3.90550320979176       -3.14922814224409
H           -2.77822560313836       -4.63329476935409       -2.05822197712800
H           -4.50277903009216       -4.23103308499451       -0.34892621104285
H           -4.30276942186786       -2.34689244668735        1.22655561992848
H           -4.73017142741930       -0.44115975781017        0.19458194509687
H           -6.08494683870348        1.48145887399406       -0.44685812424889
H           -5.13909703990758        3.77236773792150       -0.32143290256805
H           -2.79643136401132        4.06477228737098        0.42785013941994
H            1.63388495554212        1.66346490786803        2.28728664482844
H            2.59298943940736       -0.45951872575538        3.12568236321915
H            1.17898388672345       -2.49496958760212        3.16141268585484
H           -1.09928804141056       -2.42386620740026        2.25231009557829
