59
 energy: -96.683335010304 gnorm: 0.000068836116 xtb: 6.7.1 (edcfbbe)
C            0.39387698986295        2.89976890067659       -2.29041840314459
C            0.11183114059185        1.55562567042149       -2.47050338942146
C            0.66869923305786        0.60600359019621       -1.63397043934149
C            1.51428744094183        0.99685339506480       -0.60445759422658
C            1.82802145086813        2.34361503317124       -0.45788751845572
C            1.26276183398500        3.29557999282637       -1.29147744192331
S            2.97744682022306        2.84891268881582        0.79567025904560
C            4.02044534520635        1.41734628544114        0.76068414990765
C            5.38144149027402        1.54742624572587        0.99254333504692
C            6.19603180676226        0.43064245608029        0.96285263118842
C            5.65752331489646       -0.81268030866161        0.67149033134178
C            4.30189445208098       -0.94457243478990        0.43160000528760
C            3.46478970116720        0.16385539724653        0.50565112392141
N            2.08166116805019        0.04810936973680        0.28071616373222
C            1.26247030745259       -0.79661833205708        0.98146542896667
C            1.74519994205153       -1.60385643452136        2.05063342938306
C            0.85887248620925       -2.37221914898855        2.74293184986168
C           -0.51881912816874       -2.34303436660850        2.41731326764857
C           -1.51350934171515       -3.07343262152535        3.09046696163300
C           -2.83018569210378       -2.93929911515013        2.73665529692078
C           -3.21056328885132       -2.06953929972422        1.70342743163103
C           -2.26528781172516       -1.35063490308970        1.02072845800992
N           -2.62539147714244       -0.46354541919893       -0.03493246984745
C           -2.57935037330292       -0.99737079024814       -1.32272794939128
C           -2.22275235894061       -2.33215709055752       -1.52322541891722
C           -2.18886504182309       -2.88980705273005       -2.78869553753838
C           -2.49562483391711       -2.12656478260636       -3.89959991046453
C           -2.84617274451288       -0.79975948855340       -3.72404341292234
C           -2.90054479807508       -0.24605392146966       -2.45603937215737
S           -3.42844975401037        1.43859760740401       -2.33011105136109
C           -2.70267693716849        1.86543068455617       -0.77354997384641
C           -2.46436606635222        3.20849669671181       -0.54029348698410
C           -1.99415832229862        3.63583622949987        0.68762884090148
C           -1.79324011078192        2.70253416719298        1.68701042059134
C           -2.01722921819083        1.35906884009978        1.44911708628514
C           -2.44203147391476        0.90046403891347        0.20182576991699
C           -0.89302830111805       -1.48284686795692        1.35577112808584
N           -0.00970867423586       -0.75723779663751        0.65886377060792
H           -0.05351523497950        3.63993417067604       -2.93541616770072
H           -0.54579583911981        1.24199781573025       -3.26618301228637
H            0.43980035784258       -0.43940408005392       -1.76306565649637
H            1.50763049034452        4.33620973844106       -1.14490036467879
H            5.78651975488740        2.52509149081805        1.20221538674552
H            7.25301063003514        0.53297276158518        1.15381546999813
H            6.29460250262772       -1.68264345472713        0.62526419503602
H            3.87776821293403       -1.90771788956266        0.18894390980571
H            2.78840287608820       -1.57917091984542        2.32224398976499
H            1.19267644186402       -2.99314885053300        3.56293776993159
H           -1.22246415129691       -3.73488504744316        3.89405435556344
H           -3.59230482431478       -3.49846411065215        3.25797927892193
H           -4.25267855242905       -1.96411180103100        1.44113887238728
H           -1.97197632391187       -2.94690261201040       -0.67294765590691
H           -1.91613330680810       -3.92874159341249       -2.89943902039365
H           -2.46803471544987       -2.55407807880227       -4.88966745694731
H           -3.10049041541840       -0.17870420139451       -4.56980598057228
H           -2.67099439192561        3.91453527971032       -1.33016192532980
H           -1.80881543001333        4.68381651717990        0.86351498489242
H           -1.45792912897459        3.01519280365669        2.66455864203818
H           -1.86457812734583        0.65528194707735        2.25180161532596
