  108
       -157.68230603
 C         -0.6400794349        4.5658240387        4.0937261951
 C          0.3902059680        4.2687932111        3.0028618927
 C          1.8202982487        4.4593666163        3.5131515910
 C          0.1610822803        5.1385275956        1.7899797469
 C          0.1485781554        6.5217587117        1.9099302670
 C         -0.0620863931        7.3258128358        0.8069625449
 C         -0.2556040483        6.7612339483       -0.4386254816
 C         -0.2334245578        5.3831954509       -0.6061855502
 C         -0.4547210122        4.7746220412       -1.9706148332
 C          0.5138570106        5.3540046488       -3.0028374572
 C         -1.9115799491        4.9806624109       -2.3930657583
 C         -0.0282500547        4.5928176263        0.5226967802
 N         -0.0160698566        3.1606934818        0.3716121813
 C         -1.2519851814        2.5360362621        0.3466220505
 O         -2.2757323810        3.1727927841        0.4731130471
 C         -1.2292759328        1.0742671878        0.1532340195
 C         -2.4154831029        0.3782347533        0.0931389124
 C         -2.4144406171       -1.0148468276       -0.0938134059
 N         -3.6440353851       -1.7083392024       -0.1501956549
 C         -4.4996516861       -1.4685297790       -1.2203295241
 C         -4.0932384071       -0.6247418837       -2.2582975674
 C         -4.9236974832       -0.3595604058       -3.3264935244
 C         -6.1747539364       -0.9453724404       -3.3879079522
 C         -6.5642611218       -1.8093972092       -2.3822774167
 C         -5.7475108324       -2.0939506017       -1.2959377655
 C         -6.2226228279       -3.0821271794       -0.2492098000
 C         -7.5192845908       -2.5462826291        0.3848539133
 C         -6.4822400080       -4.4353204881       -0.9361708731
 C         -5.1969309926       -3.2793980216        0.8498162316
 C         -5.4780180703       -4.1574659474        1.8884773002
 C         -4.6071632669       -4.3520362869        2.9435353779
 C         -3.4272247506       -3.6322904020        2.9833254705
 C         -3.1224478460       -2.7558673772        1.9633038973
 C         -3.9830112214       -2.5855695768        0.8748851690
 C         -1.2214104373       -1.6934703033       -0.2116387605
 C          0.0087613714       -1.0118671689       -0.1376683571
 C          1.2463063832       -1.6753196006       -0.2468666939
 C          2.4316464112       -0.9779661995       -0.1700320957
 N          3.6695474780       -1.6540157741       -0.2555158776
 C          4.0574202935       -2.5053703806        0.7739800192
 C          3.2342086846       -2.6725701707        1.8914040127
 C          3.5897533292       -3.5207301302        2.9187486513
 C          4.7838300471       -4.2151682694        2.8567666649
 C          5.6162032613       -4.0255179998        1.7703110367
 C          5.2839257609       -3.1753197894        0.7236769450
 C          6.2682224634       -2.9837996850       -0.4135770446
 C          7.5795547446       -2.4215253489        0.1647965504
 C          6.5205671858       -4.3455030326       -1.0865859220
 C          5.7433912913       -2.0207734951       -1.4600649347
 C          6.5205216619       -1.7392701796       -2.5758692193
 C          6.0838234636       -0.8989387000       -3.5823315051
 C          4.8239857368       -0.3362506191       -3.4917940818
 C          4.0319160815       -0.5995341542       -2.3942577531
 C          4.4867269528       -1.4175433594       -1.3558982766
 C          2.4174265459        0.4173249144        0.0010831798
 C          1.2233920189        1.0956067868        0.0988926327
 C          0.0009581627        0.3956818743        0.0373659507
 C          1.2288515748        2.5611655145        0.2652728194
 O          2.2440577513        3.2221709132        0.3024917934
 H         -0.5173824596        3.8699350818        4.9210764473
 H         -0.5260354703        5.5757707748        4.4779848427
 H         -1.6469288229        4.4589859616        3.6957503483
 H          0.2734964204        3.2172047639        2.7192358196
 H          2.5287214018        4.2339822489        2.7189434699
 H          1.9803614543        5.4845460608        3.8375291020
 H          2.0125901384        3.7956472717        4.3537417862
 H          0.3018916994        6.9754619864        2.8768259529
 H         -0.0768575800        8.4000823384        0.9190597704
 H         -0.4255170820        7.4003990072       -1.2910893213
 H         -0.2690405006        3.6961877898       -1.9174630978
 H          0.4028353226        4.8308708915       -3.9505454914
 H          0.3228985550        6.4099008575       -3.1737944776
 H          1.5398699736        5.2386196084       -2.6601465023
 H         -2.5780471238        4.5554922611       -1.6457845346
 H         -2.1360435871        6.0398508248       -2.4911294644
 H         -2.1003652971        4.4956212612       -3.3486215370
 H         -3.3474710467        0.9140635907        0.1954687162
 H         -3.1125947200       -0.1751918044       -2.2336531745
 H         -4.5878376075        0.3009642018       -4.1117036352
 H         -6.8361137988       -0.7434630031       -4.2164059013
 H         -7.5351502265       -2.2758116082       -2.4516258908
 H         -7.9013510063       -3.2367808187        1.1315210970
 H         -8.2880887859       -2.4004521808       -0.3688087864
 H         -7.3266795993       -1.5903387938        0.8682213276
 H         -5.5615432232       -4.8060933113       -1.3830542560
 H         -6.8376283267       -5.1723299042       -0.2216003970
 H         -7.2276746039       -4.3365712954       -1.7201410122
 H         -6.4069833772       -4.7068623880        1.8803169743
 H         -4.8542143503       -5.0473935929        3.7308456146
 H         -2.7412572974       -3.7478567014        3.8090501403
 H         -2.2066240089       -2.1880398277        2.0188441839
 H         -1.2246835683       -2.7643980223       -0.3537898509
 H          1.2613080258       -2.7469023205       -0.3832369932
 H          2.3075650724       -2.1245206807        1.9634947245
 H          2.9324675886       -3.6339203775        3.7678563592
 H          5.0710132775       -4.8875372072        3.6504348464
 H          6.5553577566       -4.5566625267        1.7428255885
 H          7.9981445200       -3.0954724151        0.9069600006
 H          8.3185292799       -2.2774050966       -0.6183690456
 H          7.3917686230       -1.4608605632        0.6406576126
 H          5.5897589131       -4.7342927228       -1.4956377163
 H          7.2377300920       -4.2513609162       -1.8970912026
 H          6.9084769037       -5.0660739617       -0.3720715963
 H          7.4973280307       -2.1890238446       -2.6683653119
 H          6.7159806082       -0.6973706071       -4.4333824806
 H          4.4517034239        0.3055573012       -4.2759778397
 H          3.0440237708       -0.1680865236       -2.3459365327
 H          3.3442700194        0.9681238930        0.0624191847
