57
 energy: -86.131386492623 gnorm: 0.000113317348 xtb: 6.7.1 (edcfbbe)
C           -2.79731410860051        2.70929745382780        3.17022664992395
C           -2.48298232477667        1.40629583683000        3.52779384468941
C           -2.26297093062957        0.43615341606760        2.55869584720442
C           -2.36366921666536        0.79761927175049        1.23262692412738
C           -2.68060512966640        2.11410096893323        0.86536771776488
C           -2.89820617778877        3.07702209345683        1.83766596171879
C           -2.72044207440933        2.19086263632659       -0.58693886612827
C           -2.98479902728883        3.25093233137808       -1.43922984795484
C           -2.95532269023971        3.02650193000884       -2.80665829567025
C           -2.66737681256000        1.76864569378528       -3.31597260421276
C           -2.40149228145800        0.70155479647685       -2.46777864546141
C           -2.42954757402094        0.92085983881840       -1.10748245890631
C           -2.17618143154646       -0.06606188815216        0.00766271604043
C           -3.09638777871581       -1.26283198906242       -0.02750721516078
C           -4.46690165795785       -1.28891971763062        0.01547059940590
C           -5.11487384341448       -2.52344701999412       -0.02492266190090
C           -4.38551451871531       -3.70880063099294       -0.10793164299372
C           -3.00842370856409       -3.69746348362407       -0.15300679767636
C           -2.34161976286689       -2.46373456565840       -0.11268330866010
C           -0.96315808329553       -2.13996185992879       -0.13979077857879
C            0.19955789582202       -2.93558890615460       -0.21127456598258
C            1.42350903855812       -2.34035365655205       -0.19682748805078
C            1.59695658627376       -0.91466654673543       -0.13185969570044
C            2.88173488339658       -0.32464683405774       -0.13650489905353
C            3.07868221916564        1.05677713635824       -0.41936412968859
C            4.31245984213932        1.62034027958140       -0.45416007210067
C            5.49545598864098        0.86322919836784       -0.18218767805476
C            6.76461760624381        1.42162148936702       -0.20267753577483
C            7.89086359790833        0.64723528703624        0.07494449223186
C            7.74875707171930       -0.70260583836984        0.37892632886884
C            6.50229709578805       -1.28537216743745        0.40577827010164
C            5.33578242490403       -0.52339833191777        0.12323239799192
C            4.06850465232729       -1.08695168730311        0.13819020314896
C            0.40151233278036       -0.12257385234727       -0.07109256459033
C           -0.81406395941154       -0.71909184259938       -0.06966785710681
H           -2.96540582036177        3.44677593855913        3.94197037347927
H           -2.40941706216000        1.14239548318594        4.57286563804420
H           -2.01843839748660       -0.57883148884014        2.83785339049926
H           -3.14344980305995        4.09284671907044        1.56466244528129
H           -3.20954579922291        4.23216651346929       -1.04788103334990
H           -3.15910612263772        3.84173362288948       -3.48610140034472
H           -2.65031937586215        1.61664412610905       -4.38549280915599
H           -2.17809916151855       -0.27815992624184       -2.86550962847650
H           -5.03664222664772       -0.37282936184025        0.08032718790062
H           -6.19344809800202       -2.56098147535246        0.00933359583375
H           -4.91428284541718       -4.65100149384546       -0.13753048764007
H           -2.44747296097221       -4.61778139314725       -0.21717892226214
H            0.11171458525354       -4.01004647616231       -0.28094092593114
H            2.29922285651597       -2.96364852259313       -0.28217724807770
H            2.22427290012893        1.67090825731682       -0.65916560962447
H            4.42610360922760        2.66686972557981       -0.70056483347163
H            6.87860338738820        2.47143956283100       -0.43446600045443
H            8.87180028175016        1.09813101597864        0.05480509282637
H            8.62522265815813       -1.29656527118232        0.59645742151910
H            6.39221495370439       -2.33433401971725        0.64037208429670
H            3.98258524398831       -2.12553528575785        0.41479225877338
H            0.46716916197234        0.95075503565149        0.01457092001737
