57
 energy: -86.224534794117 gnorm: 0.000036322081 xtb: 6.7.1 (edcfbbe)
C           -2.01372365685783        3.60420800359421        2.31219290674344
C           -1.92919202380767        2.40530372433842        3.00474643676404
C           -1.96325927146469        1.19092901370960        2.33142178027532
C           -2.08342205680328        1.20399727875996        0.95867089326180
C           -2.16879703826736        2.41357237837652        0.25319391199739
C           -2.13400206566020        3.62129413324790        0.93135360025656
C           -2.28349545809179        2.11249263255796       -1.16570980357396
C           -2.39422642860429        2.94219416709985       -2.26988332741385
C           -2.48560402857134        2.36570506207445       -3.52706171997160
C           -2.46627201478108        0.98742937298713       -3.68150179046760
C           -2.35638875710987        0.14966896726463       -2.57915075129136
C           -2.26683947675162        0.71924282320592       -1.32760595040817
C           -2.14061094866111        0.02964925924964        0.01043596942238
C           -3.27277938153240       -0.92713830662254        0.30295522138970
C           -4.62405743753974       -0.66364166645040        0.35923344044242
C           -5.49139341867822       -1.70959728108941        0.64771824129598
C           -5.00938772417392       -2.99024412556342        0.87495337763999
C           -3.65101461478553       -3.25943335665369        0.81897589038732
C           -2.77977877716522       -2.22083319896226        0.53159829811404
C           -1.33198996883759       -2.19071946796075        0.40762800567632
C           -0.37748549398994       -3.18731833195172        0.53479200160768
C            0.95535605571031       -2.86083260772527        0.35842850373670
C            1.35474742393890       -1.55604853299648        0.06430133338721
C            2.78072436910327       -1.23376250286786       -0.09273252945800
C            3.63319144291380       -2.10817054153918       -0.80356265963970
C            4.96138460118662       -1.83018300597159       -0.94735745700786
C            5.52513718955784       -0.66584791581996       -0.38280296918311
C            6.89534911048475       -0.35543988888006       -0.50288111750854
C            7.40592725834966        0.78079870973692        0.06098953958287
C            6.56859473536586        1.65930628396849        0.76770002185611
C            5.23574319905190        1.38712545310351        0.89999076315975
C            4.67747681137789        0.22177105584622        0.33139380867459
C            3.30933413748737       -0.08841125995869        0.45541684050223
C            0.38838227359183       -0.55461773208321       -0.06385657258903
C           -0.93718430022355       -0.87876079088474        0.10540103239414
H           -1.98535650801033        4.53684241547030        2.85734036138208
H           -1.83565738193638        2.41558766465676        4.08111912773813
H           -1.89758620276096        0.25737547820212        2.87181560295104
H           -2.19883033810962        4.55742423567421        0.39654687420362
H           -2.40852559756486        4.01604056593242       -2.15522428540646
H           -2.57248538474023        2.99773390226405       -4.39927676447616
H           -2.53802523113153        0.55969645575504       -4.67099275561143
H           -2.34199335075388       -0.92404132067130       -2.70051281170855
H           -5.00097501228046        0.33372269898951        0.18298635503679
H           -6.55436554636049       -1.52254376672407        0.69621799538721
H           -5.70304485481914       -3.78829733764739        1.09801900257970
H           -3.28047461545739       -4.25825059282976        0.99666610628431
H           -0.66515534097750       -4.20131203039402        0.77073230217053
H            1.70854100582990       -3.62686956776335        0.47434609807598
H            3.21282294745129       -2.99614265915618       -1.25321507996289
H            5.60387477162596       -2.50258115836857       -1.49892592760096
H            7.53589381162007       -1.03424518549624       -1.04860309100569
H            8.45728601497707        1.01211808744986       -0.03299753956558
H            6.98894577255577        2.55297505798164        1.20644334487357
H            4.58745266130139        2.06112781173930        1.44264629686259
H            2.67598831359721        0.58442961690961        1.01702179246786
H            0.68122680019623        0.45552482288011       -0.31153917473975
