  57
        -86.18987407
 C         -2.6610705436        2.5752625976        3.3244963842
 C         -2.3623458899        1.2524213123        3.6142856328
 C         -2.1777567268        0.3255242252        2.5969510243
 C         -2.2977891337        0.7513870970        1.2925447008
 C         -2.5972537259        2.0883497515        0.9932564397
 C         -2.7811444194        3.0071383581        2.0132355194
 C         -2.6572740229        2.2346147728       -0.4525709743
 C         -2.9076900760        3.3389256457       -1.2502468151
 C         -2.8970126579        3.1789836184       -2.6267219671
 C         -2.6418507444        1.9413812230       -3.1982204281
 C         -2.3904117127        0.8298588964       -2.4048284767
 C         -2.4001823065        0.9857243090       -1.0362805131
 C         -2.1542204304       -0.0574322601        0.0264079275
 C         -3.1077638322       -1.2259036333       -0.0438720662
 C         -4.4832651706       -1.2119134522        0.0237813083
 C         -5.1614032770       -2.4207830526       -0.0621128992
 C         -4.4706986484       -3.6140956084       -0.2117478994
 C         -3.0869318917       -3.6316878611       -0.2800114961
 C         -2.4036868741       -2.4295639127       -0.1954605720
 C         -0.9828567500       -2.1292261720       -0.2363994239
 C          0.1257159903       -2.9481823531       -0.3766461350
 C          1.3823649358       -2.3708130857       -0.3909866764
 C          1.5539706781       -0.9909188655       -0.2710306840
 C          2.9022039669       -0.4083899287       -0.3064441310
 C          3.1341404178        0.7873053539       -1.0222241966
 C          4.3812863722        1.3366400725       -1.0840146898
 C          5.4746800265        0.7320371422       -0.4285479590
 C          6.7754162706        1.2728957678       -0.4740848366
 C          7.8100358724        0.6586937380        0.1743312598
 C          7.5902984649       -0.5241072932        0.8975939562
 C          6.3407360147       -1.0735440113        0.9599889290
 C          5.2518511520       -0.4652927700        0.3002126472
 C          3.9550536077       -1.0116137397        0.3399043205
 C          0.4332124858       -0.1689157315       -0.1274873483
 C         -0.8159940025       -0.7424604928       -0.1093149263
 H         -2.8021528910        3.2778654177        4.1328314223
 H         -2.2726077090        0.9391140404        4.6440100989
 H         -1.9463343443       -0.7054329894        2.8222041756
 H         -3.0140684194        4.0383151923        1.7926342177
 H         -3.1064235916        4.3048484762       -0.8100060424
 H         -3.0896645501        4.0294731083       -3.2643492260
 H         -2.6383603977        1.8408840310       -4.2736098261
 H         -2.1912065389       -0.1345355496       -2.8493362971
 H         -5.0212058860       -0.2822765209        0.1397528582
 H         -6.2401787367       -2.4317514913       -0.0120477110
 H         -5.0200797484       -4.5420187382       -0.2751267482
 H         -2.5530120769       -4.5631186233       -0.3955193010
 H          0.0133388158       -4.0172610863       -0.4800804421
 H          2.2533337359       -2.9963189720       -0.5225410766
 H          2.3091742765        1.2515880485       -1.5429647001
 H          4.5507741027        2.2463977679       -1.6426092681
 H          6.9390946183        2.1843345359       -1.0317214094
 H          8.8044916486        1.0786542387        0.1357444750
 H          8.4192335605       -0.9955211802        1.4046501659
 H          6.1675348643       -1.9857087170        1.5141665144
 H          3.7938284554       -1.9149458158        0.9111066803
 H          0.5486453431        0.8991065426       -0.0127144043
