  97
  -148.202782390000       0.336240298077283      !
 C         -1.7007407246        1.8965352242       -2.7014277911
 C         -2.6385478781        0.6975469552       -2.6298826547
 C         -4.0662261674        1.1060173566       -2.2763787202
 C         -5.0231603353       -0.0846497614       -2.3032074736
 C         -6.4678614073        0.3002725065       -1.9751393218
 C         -6.7066650006        0.5679114552       -0.4877330857
 C         -6.7279609743       -0.7171360685        0.3532881930
 C         -5.9161560850       -0.5929552659        1.6444188948
 N         -4.5024304966       -0.4822490180        1.3668699547
 C         -3.7251498153       -1.5589977499        0.9736855030
 O         -4.1726985104       -2.6817916555        0.8348543668
 C         -2.3744680070       -1.0156171794        0.7878829608
 C         -1.0981703331       -1.5085106508        0.4221150354
 C         -0.6349059003       -2.8328051647        0.2735940465
 C         -1.4812763432       -3.9281919740        0.5859220698
 C         -1.0129182295       -5.2131301420        0.6454068903
 C          0.3295343475       -5.4933994393        0.3870626802
 C          1.1707866817       -4.4613681359        0.0229265184
 C          0.7131847538       -3.1534995245       -0.0745402989
 N          1.6198059841       -2.1971756999       -0.5504809500
 C          2.9256160561       -2.1021983524       -0.1099385667
 C          3.4856958605       -2.5846358086        1.0643041400
 C          4.8366470085       -2.3744152543        1.2648811250
 C          5.6126073805       -1.7066303270        0.3208766814
 C          5.0497069923       -1.1922643796       -0.8331145391
 C          3.6913336650       -1.3689925169       -1.0428506662
 C          2.7896440036       -0.9902715137       -2.0977615599
 C          2.9470179139       -0.2761257377       -3.2753045491
 C          1.8552677829       -0.1333097690       -4.1120387879
 C          0.6282242072       -0.7107653255       -3.7964933025
 C          0.4471295360       -1.4226267898       -2.6251638468
 C          1.5302051401       -1.5398692791       -1.7678419572
 S          0.0193557748       -0.1371705292        0.3484807824
 C         -1.2087804344        1.0506568727        0.8160995798
 C         -0.9257343600        2.4312357608        0.8011258732
 C         -1.9800795068        3.3810296947        0.8522935891
 C         -1.7669342240        4.7131254849        0.6233264838
 C         -0.4841199876        5.1899456099        0.3461976709
 C          0.5763493350        4.3070648563        0.3546182753
 C          0.3910082732        2.9531744078        0.6082053621
 N          1.5377562807        2.1577498391        0.7055164400
 C          1.9738744763        1.5067344015        1.8509512132
 C          1.2762504416        1.1965727347        3.0085089765
 C          1.9558817196        0.5320811371        4.0124347284
 C          3.2998671566        0.1949848945        3.8786177432
 C          4.0083526868        0.5312905902        2.7397991251
 C          3.3450263320        1.1920818423        1.7178216630
 C          3.7612208631        1.7003787075        0.4378862210
 C          4.9772320607        1.7484159280       -0.2250692438
 C          5.0204211926        2.3161937641       -1.4856560252
 C          3.8689960850        2.8136412474       -2.0907094677
 C          2.6516308432        2.8012983061       -1.4367707651
 C          2.6135020509        2.2702377206       -0.1551481831
 C         -2.4309597835        0.3650644769        1.0090690218
 C         -3.7923393201        0.7050804964        1.4325402648
 O         -4.2866772113        1.7547599638        1.8005575866
 H         -0.6740483543        1.5696786274       -2.8565592933
 H         -1.9840384106        2.5529523212       -3.5217698436
 H         -1.7441617703        2.4704684821       -1.7783148421
 H         -2.6393759176        0.1801680386       -3.5925129052
 H         -2.2709485114       -0.0072027660       -1.8814397691
 H         -4.0667116792        1.5679285394       -1.2869369103
 H         -4.4112536610        1.8587413796       -2.9898189121
 H         -4.6731296388       -0.8466608862       -1.6032512797
 H         -4.9959743078       -0.5277845600       -3.3022830691
 H         -6.7275947943        1.1949919476       -2.5460168755
 H         -7.1368984692       -0.5009689259       -2.2985113567
 H         -7.6576346777        1.0913392353       -0.3719021968
 H         -5.9316207505        1.2388197195       -0.1185886841
 H         -7.7532008059       -0.9788933087        0.6184380583
 H         -6.3177940399       -1.5509924146       -0.2184026298
 H         -6.0684972185       -1.4816140086        2.2640307159
 H         -6.2039365913        0.3008248170        2.2028340566
 H         -2.5211177533       -3.7387057612        0.7860853423
 H         -1.6902832925       -6.0148140689        0.8969893078
 H          0.7001334843       -6.5054487478        0.4322975506
 H          2.1995433758       -4.6660656373       -0.2374679984
 H          2.8863494413       -3.1096125758        1.7923944975
 H          5.3010740642       -2.7457048437        2.1661349304
 H          6.6712004084       -1.5860366279        0.4990328312
 H          5.6515410018       -0.6710994176       -1.5611721151
 H          3.9038407343        0.1520830722       -3.5308867115
 H          1.9550175730        0.4232165241       -5.0319463639
 H         -0.1989826614       -0.6030494816       -4.4813872495
 H         -0.5048878660       -1.8724161835       -2.3885380538
 H         -2.9753770097        3.0382168529        1.0729820125
 H         -2.5995025226        5.3990054569        0.6562408069
 H         -0.3139657309        6.2402101078        0.1690077949
 H          1.5834443976        4.6704024908        0.2086956059
 H          0.2358848687        1.4601345528        3.1236461817
 H          1.4318979129        0.2709076627        4.9195646072
 H          3.7954562431       -0.3277924038        4.6828493589
 H          5.0553403506        0.2891942718        2.6442857842
 H          5.8685150341        1.3557461857        0.2389482946
 H          5.9599955275        2.3701033341       -2.0159209188
 H          3.9298419792        3.2276417264       -3.0860914835
 H          1.7609030151        3.1921414765       -1.9046127074
  97
  -148.202644240000       0.290509552830436      !
 C         -1.7936961063        1.8498044834       -2.7374974793
 C         -2.7223899882        0.6458258478       -2.6359299872
 C         -4.1452160671        1.0521567996       -2.2606762646
 C         -5.0966718583       -0.1430992788       -2.2441157687
 C         -6.5339890091        0.2416764273       -1.8846692557
 C         -6.7342984166        0.5373844484       -0.3968980344
 C         -6.7251025482       -0.7309635705        0.4692387956
 C         -5.8772087719       -0.5778480368        1.7337285228
 N         -4.4727670685       -0.4651574235        1.4134517719
 C         -3.7027598188       -1.5463782725        1.0170975215
 O         -4.1523988454       -2.6718847105        0.9095591735
 C         -2.3582275518       -1.0038450343        0.7887477692
 C         -1.0874602145       -1.4976499236        0.4028164111
 C         -0.6295898864       -2.8215628413        0.2355338108
 C         -1.4791378464       -3.9180266220        0.5354028825
 C         -1.0174332644       -5.2062910225        0.5700038257
 C          0.3216548513       -5.4893729465        0.2980868719
 C          1.1661513144       -4.4551301859       -0.0522488242
 C          0.7148966844       -3.1435576909       -0.1249105270
 N          1.6275331592       -2.1847295018       -0.5858135045
 C          2.9307270120       -2.1015535898       -0.1358591379
 C          3.4785417997       -2.5964243190        1.0390027729
 C          4.8286642136       -2.3941769217        1.2526595022
 C          5.6157711858       -1.7237134542        0.3198341280
 C          5.0654144986       -1.1987213855       -0.8355234072
 C          3.7078290286       -1.3662915981       -1.0577664087
 C          2.8159122563       -0.9746966543       -2.1164416952
 C          2.9854441733       -0.2530671149       -3.2877161803
 C          1.8993677545       -0.0946401101       -4.1291831976
 C          0.6658957328       -0.6644068119       -3.8249612974
 C          0.4730784413       -1.3849611767       -2.6607336805
 C          1.5506355731       -1.5181947750       -1.7989190656
 S          0.0304395514       -0.1276057856        0.3145783304
 C         -1.1950372437        1.0640861428        0.7796460755
 C         -0.9155058581        2.4450714437        0.7426052339
 C         -1.9730825388        3.3922900882        0.7521742937
 C         -1.7573410693        4.7197297762        0.5000117352
 C         -0.4696297710        5.1934976997        0.2406300108
 C          0.5926931066        4.3142721410        0.2899598388
 C          0.4039812542        2.9652045195        0.5659399228
 N          1.5464755906        2.1712894626        0.7069125519
 C          1.9415428665        1.5218157763        1.8678747526
 C          1.2099298121        1.2327240417        3.0099697152
 C          1.8527171843        0.5653244475        4.0358038975
 C          3.1931361695        0.2024398651        3.9378044232
 C          3.9357090263        0.5177784279        2.8147867463
 C          3.3106345253        1.1849748667        1.7731307099
 C          3.7691552010        1.6805865987        0.5028429797
 C          5.0039133686        1.7082409301       -0.1255228443
 C          5.0909877250        2.2703728389       -1.3863973007
 C          3.9639541747        2.7791503226       -2.0266266184
 C          2.7281844014        2.7858544153       -1.4079534894
 C          2.6466162012        2.2638002195       -0.1246669964
 C         -2.4123395336        0.3790652318        0.9959610276
 C         -3.7639484396        0.7241609934        1.4456834798
 O         -4.2495450157        1.7795419094        1.8087958349
 H         -0.7672422505        1.5297019881       -2.9057107607
 H         -2.0951729598        2.4948455039       -3.5600973191
 H         -1.8255316853        2.4342135566       -1.8207757850
 H         -2.7373298883        0.1173309752       -3.5924854713
 H         -2.3376542063       -0.0481367703       -1.8858591913
 H         -4.1269827621        1.5323115880       -1.2801018377
 H         -4.5091990209        1.7902144491       -2.9801294275
 H         -4.7257206296       -0.8923458740       -1.5410968449
 H         -5.0934665072       -0.6023011949       -3.2363039293
 H         -6.8134222011        1.1240724629       -2.4653212333
 H         -7.2075121382       -0.5686073637       -2.1743637043
 H         -7.6847153451        1.0581718069       -0.2656932341
 H         -5.9534583312        1.2193108738       -0.0617062779
 H         -7.7408694101       -0.9918829232        0.7692186762
 H         -6.3275025922       -1.5742622837       -0.0974197928
 H         -6.0063741205       -1.4552218939        2.3744109480
 H         -6.1538171223        0.3248916813        2.2832641830
 H         -2.5162834710       -3.7267541658        0.7477083838
 H         -1.6976720586       -6.0083600058        0.8124023690
 H          0.6871174624       -6.5039627233        0.3232723544
 H          2.1929257421       -4.6599599224       -0.3205760495
 H          2.8700135746       -3.1235679489        1.7578624684
 H          5.2837335354       -2.7742314303        2.1550432957
 H          6.6733294994       -1.6093387365        0.5079278646
 H          5.6764782583       -0.6760616389       -1.5547018257
 H          3.9468960548        0.1699281827       -3.5343679914
 H          2.0088860076        0.4681614830       -5.0441721684
 H         -0.1568329229       -0.5448106375       -4.5134355966
 H         -0.4842328230       -1.8275320188       -2.4319006245
 H         -2.9718035715        3.0511850447        0.9593691601
 H         -2.5914447537        5.4045101138        0.4998577452
 H         -0.2983210958        6.2405250385        0.0462513168
 H          1.6018895681        4.6777018432        0.1606308516
 H          0.1720970940        1.5158294423        3.0979465724
 H          1.3014891376        0.3203008159        4.9311823149
 H          3.6586151492       -0.3241113414        4.7575814737
 H          4.9800677455        0.2555540333        2.7465397098
 H          5.8761320941        1.3054280623        0.3652729002
 H          6.0459841984        2.3091178557       -1.8897000574
 H          4.0584994551        3.1868165654       -3.0219722090
 H          1.8562384965        3.1835815817       -1.9044040498
  97
  -148.202611410000       0.280590391164888      !
 C         -0.7960545278        2.4869366940       -3.4135115177
 C         -2.1909916059        2.6569332379       -2.8269702344
 C         -2.9012485290        1.3179889848       -2.6476610711
 C         -4.2773804480        1.4876815002       -2.0096324170
 C         -4.9605031911        0.1497241491       -1.7328356063
 C         -6.2557198077        0.3196140184       -0.9276813779
 C         -6.6031598307       -0.9030950244       -0.0689642066
 C         -5.9943971840       -0.8276175902        1.3368330933
 N         -4.5574546248       -0.6980620513        1.3011154203
 C         -3.7066000946       -1.7565093281        1.0418783366
 O         -4.0783785793       -2.9062752098        0.9205950457
 C         -2.3685799976       -1.1548135601        0.9410947671
 C         -1.0707732814       -1.6117468766        0.6410205858
 C         -0.5494644030       -2.9255266509        0.6150907961
 C         -1.2902286150       -3.9986995867        1.1679247297
 C         -0.7424249209       -5.2441779328        1.3271453996
 C          0.5726044139       -5.4965847557        0.9351466534
 C          1.3070215080       -4.4876474290        0.3451692441
 C          0.7663616408       -3.2221100696        0.1532801080
 N          1.5347861376       -2.2837934378       -0.5435593107
 C          2.8840962290       -2.0787357000       -0.3291926607
 C          3.6604820943       -2.4406237066        0.7621738769
 C          5.0093338121       -2.1427182657        0.7176401106
 C          5.5728554701       -1.4989643081       -0.3805662461
 C          4.7921889012       -1.0895913977       -1.4463993280
 C          3.4344106873       -1.3636127089       -1.4159036089
 C          2.3503720456       -1.1155265676       -2.3284484196
 C          2.2691389585       -0.4808016022       -3.5581919495
 C          1.0539102515       -0.4707056984       -4.2176945380
 C         -0.0647888986       -1.0921907086       -3.6692699789
 C         -0.0091234969       -1.7221141738       -2.4401636480
 C          1.2023195781       -1.7162086982       -1.7646414203
 S         -0.0139133505       -0.2043346485        0.4757231862
 C         -1.2935103694        0.9571070022        0.8879512822
 C         -1.0509223019        2.3408755359        0.8525992723
 C         -2.1297104496        3.2646727572        0.9008494711
 C         -1.9529121788        4.5954087781        0.6383603519
 C         -0.6857891394        5.0991472889        0.3322336635
 C          0.4005394995        4.2478448780        0.3612799967
 C          0.2542908038        2.8984739220        0.6557353846
 N          1.4187841460        2.1377931290        0.7996303001
 C          1.8319622885        1.5108298759        1.9670760071
 C          1.1214393401        1.2558208481        3.1304665799
 C          1.7784646395        0.6030352354        4.1570184755
 C          3.1116933062        0.2203524701        4.0379308491
 C          3.8337917807        0.5026564795        2.8926107471
 C          3.1951715250        1.1580067779        1.8516093762
 C          3.6336494610        1.6282237836        0.5647168735
 C          4.8576757409        1.6367615877       -0.0840728019
 C          4.9304997782        2.1869889697       -1.3510624078
 C          3.7985100268        2.7023292767       -1.9766469264
 C          2.5734258950        2.7284982162       -1.3378415931
 C          2.5051422421        2.2152208066       -0.0502575407
 C         -2.4979231432        0.2306465020        1.0781002712
 C         -3.8988286775        0.5248683428        1.3815376152
 O         -4.4645722231        1.5608186592        1.6752754818
 H         -0.2997207030        3.4511785715       -3.5028527061
 H         -0.1930284870        1.8387667497       -2.7801424323
 H         -0.8488647214        2.0369981981       -4.4022021365
 H         -2.1172262969        3.1532538644       -1.8567608254
 H         -2.7866717145        3.2975826523       -3.4813770301
 H         -3.0038574943        0.8256589414       -3.6177241940
 H         -2.2856444763        0.6727641589       -2.0149502097
 H         -4.9111419554        2.0950751781       -2.6599924397
 H         -4.1598340006        2.0282300518       -1.0677987414
 H         -5.1787172430       -0.3554354815       -2.6769953774
 H         -4.2622327793       -0.4886428411       -1.1897413842
 H         -7.0758899067        0.5257807224       -1.6178937428
 H         -6.1609037965        1.1878650955       -0.2727598220
 H         -7.6851943242       -0.9772137209        0.0525412478
 H         -6.2581722415       -1.8147346406       -0.5601596473
 H         -6.2396061802       -1.7351367363        1.8954414382
 H         -6.3770831837        0.0475523746        1.8677638999
 H         -2.3074051887       -3.8252041255        1.4715947758
 H         -1.3335642821       -6.0346325129        1.7636100218
 H          1.0025506833       -6.4784823864        1.0574460612
 H          2.3056440719       -4.6836850840       -0.0177080288
 H          3.2265261508       -2.9406378130        1.6145333884
 H          5.6401520186       -2.4265164532        1.5468879868
 H          6.6361188541       -1.3099351911       -0.3936118653
 H          5.2272306465       -0.5729590171       -2.2876637908
 H          3.1405056126       -0.0124430834       -3.9893760502
 H          0.9698385551        0.0180605870       -5.1765948300
 H         -0.9972474443       -1.0810052881       -4.2125547504
 H         -0.8815510424       -2.2028776379       -2.0240833116
 H         -3.1124420741        2.8985404952        1.1415397916
 H         -2.8019167376        5.2613030732        0.6657521329
 H         -0.5474466617        6.1484013108        0.1241433824
 H          1.3968443430        4.6367521925        0.2072424872
 H          0.0880175518        1.5506269725        3.2319848901
 H          1.2442801444        0.3848506846        5.0695322101
 H          3.5877766991       -0.2957591115        4.8581777647
 H          4.8726608028        0.2237756040        2.8061183428
 H          5.7328563978        1.2262833204        0.3944716902
 H          5.8780105106        2.2127341630       -1.8686003425
 H          3.8806417615        3.1021928713       -2.9762932946
 H          1.7007135069        3.1368165016       -1.8224837150
  97
  -148.201401310000       7.797391483031391E-002 !
 C         -2.4349714096        0.2369729418       -2.9522745533
 C         -3.5584217495       -0.7233334920       -2.5830986823
 C         -4.6925685394       -0.0211169855       -1.8402702669
 C         -5.7815416924       -1.0062441716       -1.4197864803
 C         -6.9680250656       -0.3436105067       -0.7149806653
 C         -6.6428684485        0.1861598740        0.6831945643
 C         -6.4324123013       -0.9315549924        1.7114867086
 C         -5.3451072604       -0.5880203707        2.7321369003
 N         -4.0607778899       -0.4327085245        2.0880371659
 C         -3.3776270865       -1.4812168507        1.4807022234
 O         -3.7574101503       -2.6362467818        1.5177210248
 C         -2.1909831851       -0.8730864337        0.8797577730
 C         -1.0592751358       -1.3032000321        0.1407799891
 C         -0.8411088029       -2.4941942027       -0.5705403400
 C         -1.8804984829       -3.4530670858       -0.7102285453
 C         -1.8083396224       -4.4535697560       -1.6406341669
 C         -0.6911371140       -4.5773017831       -2.4710314198
 C          0.3821057964       -3.7266765682       -2.2899983061
 C          0.3493354007       -2.7269398748       -1.3282247268
 N          1.5273590793       -2.0141064818       -1.0796450786
 C          2.2368973580       -2.0678691137        0.1088047775
 C          1.8296536270       -2.5152450405        1.3570929506
 C          2.7636461283       -2.5220700756        2.3748731001
 C          4.0755631211       -2.1096096892        2.1581627849
 C          4.4863157291       -1.6645361341        0.9149677026
 C          3.5622064911       -1.6299739777       -0.1164974859
 C          3.6449577183       -1.2710061731       -1.5075706923
 C          4.6621837376       -0.7880585524       -2.3146618659
 C          4.3828776363       -0.5245765538       -3.6441672801
 C          3.1099233816       -0.7330735014       -4.1668717490
 C          2.0870784056       -1.2397113414       -3.3866416676
 C          2.3690061208       -1.5245213998       -2.0586465101
 S          0.0472220640        0.0748929355       -0.0242138943
 C         -1.0943819040        1.2155844731        0.7080967387
 C         -0.8673572101        2.6088671013        0.6406602720
 C         -1.9489950765        3.5171650813        0.7294562509
 C         -1.7904055128        4.8437499315        0.4252509165
 C         -0.5463852367        5.3396517711        0.0318500162
 C          0.5456988847        4.4949328620        0.0096628178
 C          0.4148614940        3.1527522654        0.3420007080
 N          1.5759498785        2.3822883167        0.4685366749
 C          2.0094595945        1.8062091542        1.6542874070
 C          1.3158894664        1.5862415278        2.8344326082
 C          2.0064508105        1.0293593510        3.8952116488
 C          3.3582681743        0.7170851874        3.7966642113
 C          4.0582067088        0.9492781217        2.6266288885
 C          3.3807474777        1.4847654373        1.5428866801
 C          3.7858801655        1.8674005310        0.2166368695
 C          4.9866508965        1.8119532574       -0.4722943606
 C          5.0235435750        2.2731716628       -1.7757570863
 C          3.8791714543        2.7681344875       -2.3965408381
 C          2.6749956102        2.8472633414       -1.7249210016
 C          2.6416333941        2.4159554675       -0.4059076367
 C         -2.2123733452        0.4943092339        1.1633553121
 C         -3.4231576845        0.7878644743        1.9396757777
 O         -3.8422040788        1.8316124579        2.3989785118
 H         -1.6205510590       -0.2957052344       -3.4387983259
 H         -2.7962865379        1.0082479726       -3.6293618513
 H         -2.0403720815        0.7255301628       -2.0639971124
 H         -3.9523083158       -1.1866687124       -3.4910121736
 H         -3.1598134682       -1.5231421881       -1.9549547097
 H         -4.2783533857        0.4781425790       -0.9616780434
 H         -5.1261708909        0.7498287742       -2.4824274913
 H         -5.3398809201       -1.7672088062       -0.7736391261
 H         -6.1502565163       -1.5169975307       -2.3131864043
 H         -7.3223595899        0.4846127834       -1.3336748007
 H         -7.7829139199       -1.0673333796       -0.6350211390
 H         -7.4559828965        0.8346976609        1.0156351853
 H         -5.7490840275        0.8077091275        0.6244302703
 H         -7.3606009794       -1.1328803311        2.2480764637
 H         -6.1373133113       -1.8542309702        1.2111307805
 H         -5.2672483593       -1.3883636767        3.4742432944
 H         -5.5610437214        0.3586492057        3.2333603959
 H         -2.7452706445       -3.3760457853       -0.0736711181
 H         -2.6262423395       -5.1511969856       -1.7373686816
 H         -0.6417483973       -5.3618047922       -3.2096381808
 H          1.2875527823       -3.8631347086       -2.8639538352
 H          0.8198165894       -2.8553008958        1.5280561271
 H          2.4719280574       -2.8639401264        3.3562621907
 H          4.7814922871       -2.1494158151        2.9738460839
 H          5.5070350782       -1.3593473553        0.7426543550
 H          5.6508065711       -0.6273650996       -1.9148871676
 H          5.1619693602       -0.1469430882       -4.2890714549
 H          2.9191006801       -0.5019933966       -5.2041225127
 H          1.1012233833       -1.4059595285       -3.7936766126
 H         -2.9145552235        3.1483397953        1.0291884665
 H         -2.6379020355        5.5092900785        0.4842736262
 H         -0.4262252578        6.3841494040       -0.2100321104
 H          1.5287179516        4.8803885046       -0.2193994115
 H          0.2723881756        1.8441549469        2.9309226788
 H          1.4854609390        0.8439795095        4.8223983810
 H          3.8665928711        0.2958099341        4.6508114000
 H          5.1131615517        0.7338847968        2.5601345719
 H          5.8722187234        1.4180632893        0.0026410070
 H          5.9512885919        2.2468867259       -2.3273904824
 H          3.9358359230        3.0992414129       -3.4224569750
 H          1.7881210902        3.2282371861       -2.2078838636
  97
  -148.199237550000       7.898672246569777E-003 !
 C         -0.9103543063        4.4003785717       -3.2425229857
 C         -2.3659614255        4.7890388133       -3.4770427030
 C         -3.2791013914        3.5773029720       -3.6674154906
 C         -3.5166068868        2.8125157439       -2.3672129172
 C         -4.2722805601        1.5074307371       -2.6072119756
 C         -4.5528123135        0.7194998733       -1.3247348975
 C         -3.3206527477        0.4666838650       -0.4563348197
 C         -2.1982393816       -0.2435872818       -1.2099382163
 N         -1.0167876890       -0.3880193974       -0.3946671714
 C         -0.5531699745       -1.5958625963        0.0763180918
 O         -1.1644345466       -2.6414238026        0.0391552186
 C          0.7669754389       -1.2888404992        0.6510418443
 C          1.8626564998       -2.0178970882        1.0831880721
 C          2.2059493992       -3.3962005120        0.9122283666
 C          3.0138927597       -4.0222658458        1.8768009391
 C          3.3379007160       -5.3547982238        1.7883317688
 C          2.8913992383       -6.1079915874        0.7071184136
 C          2.1473946806       -5.5041798948       -0.2881188274
 C          1.8051409944       -4.1580553503       -0.2138874119
 N          1.1262532330       -3.5802988796       -1.2908626846
 C          1.4458137961       -2.3871100034       -1.9181477800
 C          2.5669415110       -1.5807230299       -1.7744508839
 C          2.6243860696       -0.4147206161       -2.5140192341
 C          1.6104999659       -0.0669430151       -3.4025866563
 C          0.5304373348       -0.9042407501       -3.6076295729
 C          0.4506309611       -2.0783447792       -2.8721606893
 C         -0.4949745101       -3.1602118384       -2.8387936519
 C         -1.6715349872       -3.4131790271       -3.5263105907
 C         -2.3784198703       -4.5624789871       -3.2253599686
 C         -1.9348039798       -5.4369750525       -2.2352993984
 C         -0.7708687599       -5.2015194349       -1.5315327272
 C         -0.0387612206       -4.0636581110       -1.8486702405
 S          3.0645217794       -0.9047815989        1.7449588840
 C          2.0712536173        0.5408958653        1.3805689035
 C          2.4879130677        1.7823701576        1.8742528373
 C          3.8631392166        1.9937924203        2.1665398982
 C          4.3471582071        3.2247988244        2.5060042597
 C          3.4817741527        4.3201350587        2.6159564472
 C          2.1262737195        4.1363450576        2.4258490203
 C          1.6049368853        2.8923357795        2.0924097909
 N          0.2228300731        2.7330336907        2.0677009769
 C         -0.6652745687        3.5940666895        1.4633733920
 C         -0.4182678398        4.6978513391        0.6548637632
 C         -1.5045925759        5.3955724346        0.1653286794
 C         -2.8100457066        5.0028059061        0.4513505795
 C         -3.0643007045        3.8764976558        1.2144970401
 C         -1.9892799598        3.1651640264        1.7214427944
 C         -1.8817013621        1.9749714168        2.5238735824
 C         -2.8183523984        1.1187933940        3.0815743558
 C         -2.3713293658        0.0614594301        3.8530293618
 C         -1.0131160653       -0.1177353528        4.0987026766
 C         -0.0633370101        0.7268675404        3.5553327386
 C         -0.5011782947        1.7512030228        2.7264820187
 C          0.8988160897        0.1056583458        0.7160805637
 C         -0.1596144144        0.6836073232       -0.0880492512
 O         -0.3223050811        1.8089031668       -0.5229582360
 H         -0.5339751562        3.8251633909       -4.0862938175
 H         -0.2944067676        5.2910842535       -3.1370815232
 H         -0.7973637569        3.8026149347       -2.3418817056
 H         -2.7268734849        5.3781060450       -2.6315568391
 H         -2.4234672725        5.4187192338       -4.3691481070
 H         -4.2402569881        3.9086040139       -4.0701900705
 H         -2.8291636547        2.9072392770       -4.4043985841
 H         -4.0860311358        3.4396880220       -1.6777969480
 H         -2.5549082623        2.6011011776       -1.9028076221
 H         -5.2283740169        1.7295382242       -3.0896693646
 H         -3.7028646988        0.8845093333       -3.3001885921
 H         -5.0033926055       -0.2386987820       -1.5956852661
 H         -5.2819235893        1.2684805345       -0.7238281227
 H         -2.9364813045        1.4145047073       -0.0797804858
 H         -3.6051908108       -0.1437117987        0.4043569986
 H         -1.9105028595        0.3332133319       -2.0925552078
 H         -2.5045945052       -1.2489689297       -1.5104301451
 H          3.3544093007       -3.4318781276        2.7148153567
 H          3.9406085371       -5.8156711153        2.5559669972
 H          3.1508128795       -7.1523391094        0.6268292791
 H          1.8589270476       -6.0656840371       -1.1643210473
 H          3.3683960611       -1.8469535933       -1.1023328026
 H          3.4742940593        0.2407168326       -2.3976656115
 H          1.6809960337        0.8624868364       -3.9466159860
 H         -0.2374382730       -0.6549450726       -4.3243272065
 H         -2.0282940053       -2.7207024225       -4.2741149356
 H         -3.2965110985       -4.7799924704       -3.7507222627
 H         -2.5215054753       -6.3139908776       -2.0059903238
 H         -0.4595131002       -5.8655192873       -0.7409803477
 H          4.5316532288        1.1503261900        2.0746016605
 H          5.4021798666        3.3568138126        2.6934577912
 H          3.8629497623        5.2890254771        2.8968147706
 H          1.4430572416        4.9539957033        2.6034280530
 H          0.5879766852        4.9878291242        0.3977436876
 H         -1.3377712046        6.2605993409       -0.4584848335
 H         -3.6343647459        5.5793256577        0.0580972487
 H         -4.0761368418        3.5534707792        1.4085301050
 H         -3.8731240792        1.2807980928        2.9191960399
 H         -3.0824109173       -0.6260553502        4.2853607054
 H         -0.6924831094       -0.9326480891        4.7300827790
 H          0.9842517457        0.5853978548        3.7705091361
  97
  -148.199094230000       6.787170850508549E-003 !
 C         -1.5952871435       -0.5879482727        2.9057822805
 C         -2.3041781254       -1.9360590518        2.9470735766
 C         -3.3792463131       -1.9970631549        4.0334084890
 C         -4.6391681161       -1.1971505528        3.6995855412
 C         -5.5401611799       -1.9185614579        2.7001623132
 C         -6.8193277213       -1.1442314524        2.3870163214
 C         -6.6132168321        0.1556530857        1.6092682989
 C         -6.0706459791       -0.0421441153        0.1893508904
 N         -4.6266525715       -0.0125717658        0.0920513441
 C         -3.8697537391       -1.0738345249       -0.3849754434
 O         -4.3381831878       -2.1742676492       -0.6112647911
 C         -2.5070054308       -0.5537684544       -0.5195698066
 C         -1.2428567844       -1.0504209515       -0.9165646187
 C         -0.8909376306       -2.2479563777       -1.5706751853
 C         -1.8954196427       -3.1120527337       -2.0779425206
 C         -1.5981971067       -4.1250980558       -2.9492729601
 C         -0.2816722680       -4.3528176388       -3.3551764687
 C          0.7317863002       -3.5887923547       -2.8118737847
 C          0.4599196642       -2.5784689824       -1.8986123469
 N          1.5491067878       -1.9643485371       -1.2681035913
 C          1.8354807078       -2.0802823394        0.0835302999
 C          1.0141810364       -2.4858412875        1.1240375210
 C          1.5668063522       -2.5599166067        2.3891526475
 C          2.9069827187       -2.2621286137        2.6140043639
 C          3.7346870203       -1.8772113028        1.5751514543
 C          3.1973548028       -1.7727097037        0.3025314280
 C          3.7551011059       -1.4428993043       -0.9820432980
 C          5.0222127109       -1.0875469435       -1.4143979477
 C          5.2135572019       -0.8255751261       -2.7592671655
 C          4.1581838349       -0.9030763039       -3.6640607993
 C          2.8917271740       -1.2800908873       -3.2597825509
 C          2.7028247449       -1.5723169292       -1.9163059475
 S         -0.0467542620        0.2392869138       -0.6845845301
 C         -1.2657068820        1.4450648818       -0.2334601822
 C         -0.9435737874        2.8174421781       -0.2055253135
 C         -1.9691515080        3.7971340851       -0.2191744610
 C         -1.6989256754        5.1153270886       -0.4722512653
 C         -0.3910072736        5.5417451563       -0.7095488260
 C          0.6416199476        4.6297626247       -0.6175870157
 C          0.3965213217        3.2941049553       -0.3277635271
 N          1.5033204419        2.4687313234       -0.0889344034
 C          1.8159523651        1.9256576303        1.1479567384
 C          1.0088169837        1.7558608965        2.2618663123
 C          1.5887656622        1.2351782042        3.4036276150
 C          2.9399966341        0.9069604682        3.4463448015
 C          3.7517596985        1.0883416967        2.3414793002
 C          3.1886030681        1.5904803398        1.1795926111
 C          3.7253375829        1.9362264834       -0.1097888865
 C          4.9894773370        1.8688476670       -0.6722428582
 C          5.1566711884        2.2946705979       -1.9778485806
 C          4.0811966258        2.7724380556       -2.7218488323
 C          2.8168226701        2.8727713552       -2.1734334928
 C          2.6512114878        2.4719468334       -0.8552824057
 C         -2.5167312588        0.7930590533       -0.1442574803
 C         -3.8840580780        1.1484474881        0.2496621113
 O         -4.3589451559        2.1963294322        0.6437200200
 H         -2.2829360313        0.2107123282        2.6364331933
 H         -1.1708721641       -0.3566376363        3.8807137575
 H         -0.7842490471       -0.6001726666        2.1809777679
 H         -2.7483698660       -2.1503801408        1.9731757567
 H         -1.5640885896       -2.7153700584        3.1453406373
 H         -3.6612666563       -3.0394778949        4.2010534053
 H         -2.9490365909       -1.6197413672        4.9648988066
 H         -4.3537096977       -0.2195440997        3.3106463923
 H         -5.2066413849       -1.0298321821        4.6191274839
 H         -5.0011442133       -2.1188447628        1.7760019135
 H         -5.8211093277       -2.8868786213        3.1236944945
 H         -7.3266430087       -0.9059178378        3.3259129074
 H         -7.4853488431       -1.7896327581        1.8084645166
 H         -7.5809738160        0.6546732065        1.5264910509
 H         -5.9509182692        0.8302119354        2.1510393135
 H         -6.4523909800        0.7592537269       -0.4527221206
 H         -6.3884228589       -1.0066659834       -0.2145942827
 H         -2.9168343159       -2.9508472779       -1.7804115058
 H         -2.3917759346       -4.7498134212       -3.3297781368
 H         -0.0497827060       -5.1473591935       -4.0469620266
 H          1.7631763047       -3.8025778172       -3.0534990882
 H         -0.0193845964       -2.7445375008        0.9529023410
 H          0.9476534778       -2.8654871999        3.2186615483
 H          3.3057506737       -2.3467216272        3.6134707933
 H          4.7810947213       -1.6765384891        1.7447830545
 H          5.8421313897       -1.0253410986       -0.7159515491
 H          6.1952402483       -0.5543147688       -3.1169512754
 H          4.3350505926       -0.6720862497       -4.7037071141
 H          2.0753267399       -1.3464703945       -3.9628343112
 H         -2.9843657347        3.4882117095       -0.0408310980
 H         -2.5076355656        5.8298235349       -0.4933733007
 H         -0.1803026329        6.5796934581       -0.9144815536
 H          1.6666181248        4.9559588420       -0.7220414024
 H         -0.0349022725        2.0284498553        2.2444807045
 H          0.9820837471        1.0930806720        4.2847472380
 H          3.3600352837        0.5174672785        4.3613098766
 H          4.8058227361        0.8616734344        2.3843050388
 H          5.8256009411        1.4993997075       -0.0992019827
 H          6.1353503918        2.2563448350       -2.4316521349
 H          4.2403647783        3.0785572438       -3.7448108121
 H          1.9843221016        3.2502981967       -2.7475772981
