47
 energy: -66.416399701856 gnorm: 0.000067904583 xtb: 6.7.1 (edcfbbe)
C           -1.63656139459944        4.53434368776192        1.36806443150550
C           -2.65282141782009        3.79340339371876        0.50549684585837
C           -2.00970377053375        2.94063277797324       -0.58965737487757
C           -1.23903052576472        1.73942742448195       -0.04552321225302
C           -0.70038504268462        0.85083138025069       -1.17392605623837
C            0.05682504069720       -0.32458764221306       -0.62623262025007
C            1.43433836612200       -0.27021573658449       -0.44652841162384
N            2.29014600003464        0.77908235072880       -0.71308611034911
C            3.57244413237908        0.41676035462671       -0.40467365015507
C            4.74850819891022        1.14551361021975       -0.50892189721047
C            5.92410164579131        0.52928776525113       -0.12391368289010
C            5.93383168176819       -0.77942602458638        0.35593734256202
C            4.76538894779821       -1.50873554593739        0.46250361072085
C            3.56991860212383       -0.91268661945615        0.08100959389824
C            2.20307746107093       -1.35374893621221        0.05704525268267
C            1.59391114845430       -2.54871589035822        0.41214244156137
C            0.22264812551901       -2.60458898889026        0.25784368955412
N           -0.61293255063096       -3.66022364951292        0.53889756520594
C           -1.90331367084020       -3.30931439224023        0.25347776002245
C           -3.05973086959894       -4.06202866579294        0.39283036903589
C           -4.25961260875548       -3.47391479795381        0.04306615292740
C           -4.30214153656496       -2.16424413801793       -0.42771316795382
C           -3.15114557486643       -1.41201479153526       -0.56637920607838
C           -1.92403248570000       -1.97844999574371       -0.23479761414161
C           -0.55523230880528       -1.52059342716630       -0.24194347247703
H           -1.01755800997200        3.83855578726695        1.92882780026537
H           -0.98925299187011        5.15207735287272        0.74831474847187
H           -2.14678506993794        5.18074851436620        2.07924682829307
H           -3.27132730181246        3.15513234251477        1.14118358753861
H           -3.31212655865536        4.52593457982704        0.03245177144589
H           -2.79711241481285        2.57958346138884       -1.25682841605835
H           -1.33862954651652        3.56629809425513       -1.18414635881598
H           -1.89397489743379        1.14361411151022        0.59387938950083
H           -0.40120562482384        2.07841307356447        0.56642953162114
H           -1.52716936839708        0.49685681422999       -1.79034381905614
H           -0.04756781775055        1.44384795069955       -1.81936130054255
H            2.01401166466181        1.67926872047287       -1.06395477310303
H            4.74512740673622        2.16008778332248       -0.88026010973234
H            6.85573256459785        1.07210073468800       -0.19521527608295
H            6.87335234453004       -1.22639907741159        0.64736022533013
H            4.77898582748045       -2.52225879446277        0.83559792590999
H            2.16006022174572       -3.38603355367332        0.78949095068947
H           -0.31661978695893       -4.54938714368936        0.90275458229015
H           -3.01948484477912       -5.07498098070839        0.76646420351152
H           -5.17816234709396       -4.03448557336069        0.14042403330162
H           -5.25641897398866       -1.72781063313801       -0.68570835115470
H           -3.22237306843370       -0.39695406732932       -0.92162475265486
