47
 energy: -66.318575873641 gnorm: 0.000058129293 xtb: 6.7.1 (edcfbbe)
C            2.85081286255909        4.09300500780565       -1.10739188489550
C            1.58290378550312        3.97573364575545       -0.26870334788926
C            0.53462453011434        3.09363437314840       -0.94709834426078
C           -0.72440293843196        2.88949787668321       -0.10358986089006
C           -0.53332798336495        1.89526602845798        1.05842466113910
C           -0.37343242800933        0.48990141249175        0.57809667562797
C            0.87517870266473       -0.12094124415164        0.44365257062384
N            2.10611242623215        0.42671648644398        0.70212820478159
C            3.09765383324814       -0.48090035519291        0.45245259310710
C            4.46709217530737       -0.34913241745838        0.56838778122045
C            5.25141536330415       -1.45207023536280        0.24224174617342
C            4.66202338130262       -2.64677142354439       -0.18461955028961
C            3.29489201784807       -2.78915386905286       -0.30497652017655
C            2.47572616686855       -1.69481264650279        0.01231042756714
C            1.08344713356533       -1.45921571350507        0.00655381358531
C           -0.03212067102389       -2.26472024881828       -0.33717009541785
C           -1.27497879329281       -1.66316941922682       -0.22363317808209
N           -2.49059240596319       -2.23359609677925       -0.49717055004597
C           -3.49441908074867       -1.33629017617646       -0.26980047593846
C           -4.85731421100788       -1.49891523017761       -0.42052529173942
C           -5.67607633775600       -0.41557627195086       -0.12375637149039
C           -5.11738210757330        0.79182772713067        0.30848614947746
C           -3.75805273232106        0.96392791239665        0.46270537620410
C           -2.89438236791039       -0.10947409781515        0.17802917209219
C           -1.49484557979647       -0.32458139826930        0.20809582107200
H            2.62675043150099        4.54073537784392       -2.07337618939649
H            3.58867400571178        4.71523151790337       -0.60485791929470
H            3.28883258746942        3.11214446210819       -1.28351351092332
H            1.83912481724953        3.57456257127321        0.71493738451626
H            1.16213905378831        4.97157426734054       -0.10854360184792
H            0.24924224863920        3.56659601076408       -1.89011965734419
H            0.96842052678950        2.12171696348030       -1.19272765287571
H           -1.52337413554131        2.51313228642181       -0.74474957386800
H           -1.04355587029808        3.85206771748163        0.30341778846420
H            0.32866793516029        2.19542126299735        1.65667861281149
H           -1.41114211224043        1.94656490651593        1.70492530367926
H            2.26361363968413        1.37620331102360        0.99974183596878
H            4.91670285824150        0.57544799268668        0.90014565952561
H            6.32590877269653       -1.38612364398816        0.32003678337264
H            5.30428521293827       -3.48225325653760       -0.42774882734801
H            2.86114616424124       -3.72038690453589       -0.63659291682501
H            0.08728739647823       -3.28210938639296       -0.67140223376312
H           -2.62090974200932       -3.17997393581503       -0.81807822991609
H           -5.27213003145213       -2.43784183240350       -0.75746267549351
H           -6.74659029046353       -0.50455029938457       -0.22775235744944
H           -5.77954214883867        1.61799707150687        0.52919279070588
H           -3.37493688968513        1.91655290363495        0.78964142872976
