  74
  -114.621723084000       0.223049322567587      !
 N         10.4718462390       -1.2874582427        0.5085413250
 C          9.3593795540       -1.0260447806        0.3963237765
 C          7.9945335395       -0.7065633979        0.2592978628
 C          7.2793114666       -0.1859186955        1.3437800604
 C          5.9490393969        0.1323014730        1.2025858007
 C          5.2785951530       -0.0747248374       -0.0130846243
 C          3.8694351988        0.2500459805       -0.1551355618
 C          3.3993254778        1.5565213128        0.1869742068
 C          4.2715114723        2.5760292307        0.5812948751
 C          3.7991917870        3.8163910764        0.9995680191
 C          2.4412059770        4.0555672248        1.0373294784
 C          1.5547532292        3.0826814143        0.5864272728
 C          2.0068089884        1.8532927767        0.0965295933
 C          1.1066264669        0.8895073968       -0.4516170554
 C         -0.2987659366        1.2148896651       -0.6281584628
 C         -0.6882509916        2.3542260585       -1.3497729947
 C         -2.0158587629        2.6343792095       -1.6020673906
 C         -2.9904502400        1.7753746045       -1.1107959733
 C         -2.6096545131        0.6557353325       -0.3508855088
 C         -1.2918142930        0.3652681491       -0.1129183310
 C         -3.8233121400       -0.1299202618        0.0816573423
 C         -3.9694829533       -0.2257023362        1.5819779820
 C         -4.1022765696        0.7979743635        2.4938111627
 C         -4.2305843231        0.4723502341        3.8374647764
 C         -4.2250160436       -0.8513228202        4.2508719716
 C         -4.0907327731       -1.8830419160        3.3355176938
 C         -3.9625400733       -1.5661353366        1.9932724371
 C         -3.8100093351       -2.4085224525        0.8171792700
 C         -3.7247114428       -3.7842982412        0.6826731303
 C         -3.5651247968       -4.3181762715       -0.5861340013
 C         -3.4932230783       -3.4969212163       -1.7011879231
 C         -3.5794993716       -2.1168351397       -1.5744066853
 C         -3.7393244137       -1.5832006386       -0.3145119884
 C         -4.9402580874        0.6475970871       -0.5693778036
 C         -6.2910052782        0.3825552030       -0.5480055874
 C         -7.1461664605        1.2527828701       -1.2120701203
 C         -6.6520707966        2.3650173184       -1.8784785067
 C         -5.2942969228        2.6362561792       -1.9021610057
 C         -4.4330445917        1.7709299211       -1.2440859269
 C          1.5849550040       -0.4004479887       -0.8415734132
 C          0.7545268405       -1.3416418822       -1.4592558612
 C          1.2011407933       -2.6259727215       -1.7528478044
 C          2.4917386489       -2.9932322363       -1.4339051818
 C          3.3605132658       -2.0549144862       -0.8854117116
 C          2.9556726086       -0.7396122616       -0.6361471786
 C          6.0071216848       -0.6066373780       -1.0886404276
 C          7.3426347270       -0.9084554455       -0.9626526959
 H          7.7800414421       -0.0428365864        2.2903411800
 H          5.3937492426        0.5076194919        2.0498657648
 H          5.3367677758        2.4057127077        0.5557732478
 H          4.5002047128        4.5779760230        1.3060864197
 H          2.0598668066        4.9981814563        1.4002052186
 H          0.4944366249        3.2798652872        0.6233357884
 H          0.0802335314        2.9916453362       -1.7629464721
 H         -2.2886677888        3.4989160892       -2.1889828651
 H         -1.0124859756       -0.4900110832        0.4854845042
 H         -4.1090081543        1.8289481848        2.1705035842
 H         -4.3372936353        1.2596207403        4.5691427857
 H         -4.3269357222       -1.0802457748        5.3017315982
 H         -4.0869995140       -2.9120874222        3.6630173862
 H         -3.7785431143       -4.4283056905        1.5478863282
 H         -3.4947227024       -5.3891833936       -0.7091343092
 H         -3.3671100173       -3.9358223214       -2.6801274599
 H         -3.5220256675       -1.4760998044       -2.4428080605
 H         -6.6755527616       -0.4826315809       -0.0277360098
 H         -8.2089610121        1.0610750684       -1.2096778561
 H         -7.3373842835        3.0266071830       -2.3880269567
 H         -4.9140575404        3.5018565155       -2.4240457699
 H         -0.2568138540       -1.0716131903       -1.7207423789
 H          0.5259303399       -3.3303748149       -2.2148721959
 H          2.8397318286       -3.9982389974       -1.6188957161
 H          4.3669235370       -2.3576062286       -0.6403717582
 H          5.5133713458       -0.7411314235       -2.0400949127
 H          7.8988836964       -1.2974125001       -1.8031414251
  74
  -114.621690873400       0.215574775121067      !
 N         10.4927735896       -0.6449263310        1.0769544971
 C          9.3750527804       -0.5230592834        0.8430829069
 C          8.0042003583       -0.3755448647        0.5557651531
 C          7.3005998018       -1.4075448434       -0.0756573902
 C          5.9645259565       -1.2551893052       -0.3629656752
 C          5.2768891080       -0.0814530743       -0.0164245967
 C          3.8634808438        0.0754578049       -0.3126772687
 C          2.9557788362        0.4488644757        0.7276452656
 C          3.3684204757        0.5538602831        2.0598817044
 C          2.5106752722        1.0139697068        3.0537256922
 C          1.2264907876        1.3956320855        2.7248581256
 C          0.7713121866        1.2409900521        1.4196252997
 C          1.5852532249        0.6992366994        0.4189733107
 C          1.0932325483        0.4275688880       -0.8967112201
 C         -0.3108376031        0.6398804689       -1.1964875974
 C         -0.7011588919        1.4212848442       -2.2970122739
 C         -2.0271308223        1.6984430422       -2.5578603055
 C         -3.0021526350        1.1827675022       -1.7132184485
 C         -2.6218670106        0.3778681694       -0.6252597152
 C         -1.3059329799        0.1029306553       -0.3613178237
 C         -3.8322702308       -0.0408463366        0.1737134528
 C         -3.7131369265        0.3891990032        1.6165642821
 C         -3.5287189911        1.6597887681        2.1157086002
 C         -3.4031266971        1.8177960113        3.4895308456
 C         -3.4605080262        0.7224343514        4.3380591697
 C         -3.6456100263       -0.5569151046        3.8385246444
 C         -3.7706621192       -0.7224947851        2.4691077863
 C         -3.9560200142       -1.9156656271        1.6579551841
 C         -4.0908722117       -3.2483317219        2.0101658048
 C         -4.2634983247       -4.1860132436        1.0044421335
 C         -4.2998507057       -3.8034760230       -0.3279858574
 C         -4.1643356656       -2.4694657261       -0.6889089164
 C         -3.9937400613       -1.5350895931        0.3085636006
 C         -4.9500205749        0.6228476812       -0.5914101439
 C         -6.3007499482        0.5954252963       -0.3268722924
 C         -7.1561989845        1.2791737347       -1.1815991931
 C         -6.6622652602        1.9737528896       -2.2766027939
 C         -5.3044495846        2.0053502259       -2.5464211971
 C         -4.4431791919        1.3254729736       -1.6979548693
 C          1.9850142928       -0.0380590132       -1.9121391328
 C          1.5222110341       -0.4322860820       -3.1714513041
 C          2.4005478474       -0.7829783996       -4.1917129832
 C          3.7615865481       -0.7378202115       -3.9705739927
 C          4.2454958549       -0.4242498605       -2.7045388250
 C          3.3820084384       -0.1400140000       -1.6414541435
 C          5.9940901091        0.9401866398        0.6266192126
 C          7.3345102488        0.8043967332        0.9002642123
 H          7.8148697375       -2.3234816740       -0.3279571726
 H          5.4189088301       -2.0656957676       -0.8229853804
 H          4.3722930960        0.2642909507        2.3301020502
 H          2.8626612753        1.0851346119        4.0716913637
 H          0.5615696301        1.7978172643        3.4743892703
 H         -0.2336465828        1.5533291976        1.1816495068
 H          0.0673523129        1.8593139592       -2.9174824303
 H         -2.2987677850        2.3257291383       -3.3939416119
 H         -1.0303000643       -0.5410140994        0.4614251425
 H         -3.4823302533        2.5125553920        1.4533552417
 H         -3.2579348911        2.8056704925        3.9016512515
 H         -3.3589898762        0.8694561333        5.4034259800
 H         -3.6873574085       -1.4064205436        4.5038646907
 H         -4.0644998651       -3.5511977547        3.0464141811
 H         -4.3720507529       -5.2297848897        1.2611449187
 H         -4.4360162078       -4.5519968403       -1.0945661366
 H         -4.1946990546       -2.1707982985       -1.7268448758
 H         -6.6856413417        0.0540191468        0.5251405289
 H         -8.2193061515        1.2692203388       -0.9917933121
 H         -7.3479402986        2.4969507111       -2.9270853408
 H         -4.9240793752        2.5474669395       -3.3994888367
 H          0.4597831399       -0.4737230986       -3.3560421359
 H          2.0104906283       -1.0721470243       -5.1559812372
 H          4.4555626356       -0.9603340575       -4.7669856077
 H          5.3125538518       -0.3943722329       -2.5467063593
 H          5.4864919473        1.8619568780        0.8714260941
 H          7.8810524778        1.6051136520        1.3773172915
  74
  -114.621465624900       0.169856002319554      !
 N         10.5986499035       -0.0836206707        0.9400991238
 C          9.4677221379       -0.0813607887        0.7411309184
 C          8.0810365386       -0.0731600311        0.4947344254
 C          7.4543110618       -1.1983172100       -0.0522832651
 C          6.1027171908       -1.1798136576       -0.3065027037
 C          5.3246109063       -0.0500999674       -0.0096374379
 C          3.8984863586       -0.0139488716       -0.2834964195
 C          2.9894085617        0.3558169484        0.7576921849
 C          3.4206246280        0.5158266402        2.0782343060
 C          2.5624509096        0.9705560835        3.0742556768
 C          1.2596173685        1.2946838273        2.7564644218
 C          0.7900082634        1.0904299358        1.4633318780
 C          1.6067339506        0.5511197536        0.4633766489
 C          1.1126460696        0.2374311569       -0.8416658521
 C         -0.2824930596        0.4732353971       -1.1660323607
 C         -0.6225940600        1.2450944662       -2.2901198964
 C         -1.9295487722        1.5840343419       -2.5705934581
 C         -2.9367323453        1.1383598559       -1.7238626463
 C         -2.6102730270        0.3271208009       -0.6232306410
 C         -1.3119111471       -0.0079591712       -0.3390316560
 C         -3.8495740854       -0.0184954862        0.1658343243
 C         -3.7249809419        0.3854672701        1.6149657108
 C         -3.4521594360        1.6325524343        2.1326930919
 C         -3.3485114297        1.7671826145        3.5107951641
 C         -3.5155354525        0.6724530738        4.3454131798
 C         -3.7889327907       -0.5834251549        3.8272330264
 C         -3.8909938143       -0.7261195453        2.4533815982
 C         -4.1470873888       -1.8939574783        1.6246997393
 C         -4.3945681207       -3.2152879581        1.9581118718
 C         -4.6119119976       -4.1274101657        0.9377352342
 C         -4.5817173540       -3.7312340510       -0.3908121196
 C         -4.3341621929       -2.4084984744       -0.7328980735
 C         -4.1189057173       -1.4995605264        0.2792777063
 C         -4.9193103284        0.7175362409       -0.6031363021
 C         -6.2682718958        0.7876483728       -0.3371114471
 C         -7.0742360706        1.5241364533       -1.1961688115
 C         -6.5340773431        2.1719959417       -2.2980583853
 C         -5.1779310855        2.1042387851       -2.5698677881
 C         -4.3656552948        1.3728203252       -1.7158731896
 C          2.0025867346       -0.2646258183       -1.8418175597
 C          1.5273401243       -0.7299207182       -3.0715608378
 C          2.3961529864       -1.1197662587       -4.0857639776
 C          3.7593152369       -1.0376786931       -3.8888570673
 C          4.2572071134       -0.6447165234       -2.6507403925
 C          3.4053603296       -0.3217089481       -1.5891948275
 C          5.9647447557        1.0633358958        0.5583369054
 C          7.3183229887        1.0609534187        0.7973606930
 H          8.0407440889       -2.0797293609       -0.2679154107
 H          5.6190296329       -2.0618097343       -0.7003252786
 H          4.4405206404        0.2748641453        2.3367849981
 H          2.9278842566        1.0837095692        4.0837138491
 H          0.5920037091        1.6925055276        3.5060269926
 H         -0.2282798171        1.3636266663        1.2346786710
 H          0.1733674323        1.6276471655       -2.9126838485
 H         -2.1610570623        2.2065176267       -3.4221906688
 H         -1.0778711258       -0.6541641804        0.4947292212
 H         -3.3214953802        2.4850679606        1.4813687971
 H         -3.1351467751        2.7363215599        3.9373974137
 H         -3.4305315680        0.8013405311        5.4146608869
 H         -3.9155963857       -1.4329140834        4.4817372364
 H         -4.4206517398       -3.5287430982        2.9911542551
 H         -4.8093339272       -5.1616133610        1.1795848358
 H         -4.7552924797       -4.4597893285       -1.1689876786
 H         -4.3142918453       -2.0983757981       -1.7677080945
 H         -6.6889834065        0.2827921358        0.5203651778
 H         -8.1347263612        1.5929847070       -1.0041847224
 H         -7.1818244686        2.7378979275       -2.9517528327
 H         -4.7613420881        2.6108721049       -3.4277719472
 H          0.4626791527       -0.7936150786       -3.2369851223
 H          1.9972687051       -1.4657523763       -5.0275040041
 H          4.4453159422       -1.2900671832       -4.6832868145
 H          5.3258292881       -0.5819384608       -2.5155462884
 H          5.3830214855        1.9484703135        0.7711373451
 H          7.8038392520        1.9321540513        1.2127476299
  74
  -114.621394562600       0.157551639386244      !
 N         10.4724120799       -1.2201543872        0.6855220298
 C          9.3606665432       -0.9737615085        0.5380212894
 C          7.9969195772       -0.6716969532        0.3565525880
 C          7.0144069519       -1.4219071313        1.0124879799
 C          5.6842674253       -1.1276417040        0.8243349246
 C          5.2861709026       -0.0676987306       -0.0047847401
 C          3.8781296253        0.2449059665       -0.1884971203
 C          3.3971671457        1.5622451143        0.0925696617
 C          4.2327759697        2.5457109974        0.6325359171
 C          3.7552020584        3.8089743263        0.9651891908
 C          2.4145966367        4.0945000078        0.8148857071
 C          1.5503737997        3.1191346055        0.3288004200
 C          2.0119437279        1.8605690038       -0.0704884627
 C          1.1110196282        0.8493502825       -0.5303474565
 C         -0.2947505383        1.1585143571       -0.7238386239
 C         -0.6870801258        2.2372217318       -1.5334159472
 C         -2.0158024049        2.5198537603       -1.7736806411
 C         -2.9900304354        1.7191339501       -1.1911701446
 C         -2.6065958335        0.6469761052       -0.3660956417
 C         -1.2875019952        0.3609987889       -0.1290517873
 C         -3.8200970364       -0.1029578639        0.1259399371
 C         -3.9252734551       -0.2028079605        1.6277869035
 C         -3.9994956716        0.8183737415        2.5492311243
 C         -4.0999205977        0.4882751569        3.8942866639
 C         -4.1254283521       -0.8374848284        4.3004752613
 C         -4.0510166400       -1.8670535055        3.3759346732
 C         -3.9505152011       -1.5455267666        2.0324697249
 C         -3.8563379228       -2.3863612903        0.8492112627
 C         -3.8240462849       -3.7635446505        0.7048457787
 C         -3.7130701323       -4.2945928837       -0.5704309800
 C         -3.6354722634       -3.4693232325       -1.6821952722
 C         -3.6706500263       -2.0878643985       -1.5456631724
 C         -3.7837793227       -1.5576839432       -0.2793613711
 C         -4.9436875672        0.6794527903       -0.5085201050
 C         -6.2992518132        0.4591194748       -0.4115161337
 C         -7.1583388641        1.3171300092       -1.0861007038
 C         -6.6632112298        2.3713140060       -1.8408075758
 C         -5.3008229527        2.5962203893       -1.9423362552
 C         -4.4356964313        1.7441043341       -1.2715680899
 C          1.5931650488       -0.4682503390       -0.8138375868
 C          0.7626290759       -1.4518847336       -1.3616693707
 C          1.2400744501       -2.7186398008       -1.6811393755
 C          2.5775719404       -3.0092894903       -1.5152718054
 C          3.4388215428       -2.0330128752       -1.0258553298
 C          2.9769136601       -0.7698680913       -0.6407272412
 C          6.2830825787        0.6807910309       -0.6491029144
 C          7.6150408192        0.3817470804       -0.4821116756
 H          7.3107235809       -2.2271590055        1.6690551494
 H          4.9287312684       -1.6930794462        1.3505014134
 H          5.2710310802        2.3187570869        0.8183156544
 H          4.4344770011        4.5488530685        1.3609102783
 H          2.0246314900        5.0624641434        1.0919995244
 H          0.4948264797        3.3365261127        0.2793586799
 H          0.0797889492        2.8251459045       -2.0171057662
 H         -2.2911740161        3.3408316731       -2.4190930312
 H         -1.0070843698       -0.4472695073        0.5309791533
 H         -3.9815115012        1.8512590898        2.2324202345
 H         -4.1599689669        1.2737882917        4.6330928516
 H         -4.2053211877       -1.0698036811        5.3524972803
 H         -4.0713044890       -2.8977243090        3.6970945431
 H         -3.8812773235       -4.4108885458        1.5671958922
 H         -3.6848297921       -5.3665359207       -0.7012091540
 H         -3.5469056457       -3.9058338724       -2.6662565318
 H         -3.6110078239       -1.4438046651       -2.4114369714
 H         -6.6842923403       -0.3616121459        0.1761018317
 H         -8.2251931105        1.1620207552       -1.0227576174
 H         -7.3520202521        3.0244903459       -2.3564215057
 H         -4.9195407270        3.4173846058       -2.5310026504
 H         -0.2734463650       -1.2266838052       -1.5609428990
 H          0.5600356057       -3.4578015053       -2.0771140364
 H          2.9681111734       -3.9798046753       -1.7819489902
 H          4.4927238593       -2.2558038590       -0.9633490582
 H          5.9910422212        1.4789320566       -1.3164033988
 H          8.3744554966        0.9503211855       -0.9990291499
  74
  -114.621204263100       0.128815265087147      !
 N         10.6124423890       -0.8793664794        0.5156080202
 C          9.4829962341       -0.7026071802        0.4050071939
 C          8.0984347711       -0.4838341687        0.2679519221
 C          7.1832354260       -1.3376640886        0.8943324044
 C          5.8320839807       -1.1234886277        0.7526572134
 C          5.3444663672       -0.0434808713        0.0004012873
 C          3.9186863203        0.1965642681       -0.1425067373
 C          3.3810178312        1.4766493254        0.2043093072
 C          4.1672225229        2.4574941008        0.8177416719
 C          3.6371909570        3.6856379793        1.1994148285
 C          2.2934450490        3.9369403837        1.0181466394
 C          1.4765900890        2.9593234382        0.4605157727
 C          1.9909627080        1.7342174427        0.0226662507
 C          1.1357896772        0.7131459576       -0.4980915632
 C         -0.2656947019        1.0137502012       -0.7438952633
 C         -0.6139699407        2.0999796362       -1.5629733507
 C         -1.9294566486        2.4166525052       -1.8297944638
 C         -2.9335942207        1.6490102964       -1.2544765652
 C         -2.5949350646        0.5637889741       -0.4269940790
 C         -1.2870777971        0.2362827960       -0.1743324529
 C         -3.8401832872       -0.1138148026        0.0900094544
 C         -3.9216823427       -0.1688955553        1.5962112502
 C         -3.8857039888        0.8766102293        2.4921448618
 C         -3.9829946593        0.5887021612        3.8470140194
 C         -4.1146255274       -0.7196853387        4.2872967361
 C         -4.1502701459       -1.7736286881        3.3882283439
 C         -4.0519328522       -1.4943682035        2.0351993163
 C         -4.0536882247       -2.3675603500        0.8718011969
 C         -4.1561351119       -3.7443809855        0.7613403412
 C         -4.1249063117       -4.3127233937       -0.5022002483
 C         -3.9925588986       -3.5244424676       -1.6354367662
 C         -3.8911429320       -2.1433697405       -1.5328254083
 C         -3.9241055502       -1.5756802244       -0.2782183884
 C         -4.9301353447        0.7200216920       -0.5396009447
 C         -6.2940433131        0.5750001422       -0.4206794879
 C         -7.1150296403        1.4692836595       -1.0957721638
 C         -6.5747179075        2.4839311328       -1.8730440926
 C         -5.2036505750        2.6329635534       -1.9963223149
 C         -4.3768710808        1.7447294477       -1.3245686982
 C          1.6619885662       -0.5825728219       -0.7956014504
 C          0.8643877260       -1.5857028571       -1.3567347960
 C          1.3882034722       -2.8249490149       -1.7096664662
 C          2.7380463884       -3.0649907455       -1.5644334525
 C          3.5646080019       -2.0690899520       -1.0543884900
 C          3.0570228445       -0.8370099059       -0.6294306790
 C          6.2754278530        0.8107267900       -0.6122203350
 C          7.6274711426        0.5931711057       -0.4920777755
 H          7.5486767961       -2.1595368222        1.4929053915
 H          5.1300834292       -1.7671577748        1.2626211260
 H          5.2074442564        2.2558262137        1.0216112961
 H          4.2790757438        4.4255783642        1.6531877418
 H          1.8640464782        4.8782883946        1.3266699621
 H          0.4167976122        3.1466029348        0.3835066305
 H          0.1786376514        2.6739391134       -2.0212813159
 H         -2.1719687543        3.2457600047       -2.4778216455
 H         -1.0396758534       -0.5783470817        0.4911545713
 H         -3.7850130806        1.8959576773        2.1482884026
 H         -3.9562928183        1.3937158502        4.5665302450
 H         -4.1901625246       -0.9190217641        5.3463542558
 H         -4.2526074371       -2.7907497833        3.7363637279
 H         -4.2594593341       -4.3628819302        1.6404914455
 H         -4.2054340776       -5.3849068845       -0.6070182128
 H         -3.9701880893       -3.9899156502       -2.6098623236
 H         -3.7910574033       -1.5281377742       -2.4156018173
 H         -6.7148721390       -0.2148061616        0.1844646926
 H         -8.1876375007        1.3743149402       -1.0138220994
 H         -7.2343277242        3.1662659620       -2.3891661099
 H         -4.7870532456        3.4238542938       -2.6022483048
 H         -0.1814252021       -1.3947479685       -1.5397204695
 H          0.7352736513       -3.5818052172       -2.1176631431
 H          3.1644818101       -4.0112406841       -1.8614753894
 H          4.6268640911       -2.2516651164       -1.0075240687
 H          5.9147458235        1.6288703889       -1.2186760028
 H          8.3344188460        1.2455849758       -0.9837596445
  74
  -114.621012462000       0.105152995518401      !
 N         10.1889123641       -1.7135839058        1.0488500973
 C          9.1163379691       -1.3705066711        0.8230542344
 C          7.7992085096       -0.9607086969        0.5394247964
 C          6.9288600163       -1.8159824040       -0.1469703802
 C          5.6485421322       -1.4076107450       -0.4337866552
 C          5.1788661708       -0.1460400537       -0.0317167403
 C          3.8153563632        0.2517785639       -0.3334448928
 C          2.9439297194        0.7137822348        0.7010176154
 C          3.3517352149        0.7992123228        2.0365328971
 C          2.5245114187        1.3374983533        3.0169169451
 C          1.2717989566        1.8052016828        2.6770574629
 C          0.8128863384        1.6629602431        1.3716406582
 C          1.5978303663        1.0627249414        0.3822407191
 C          1.0837872785        0.8148947226       -0.9301249524
 C         -0.3358686852        0.9873728456       -1.1800159072
 C         -0.8148362694        1.7497117692       -2.2574562443
 C         -2.1658436401        1.8940217400       -2.5014199420
 C         -3.0740778291        1.2581500002       -1.6648557738
 C         -2.6023414890        0.5028410698       -0.5765131223
 C         -1.2634312238        0.3686451771       -0.3233521205
 C         -3.7541481889       -0.0793765273        0.2051213280
 C         -3.7545658889        0.3753711359        1.6454631237
 C         -3.7984592669        1.6624527400        2.1341226675
 C         -3.7726496563        1.8474214415        3.5099814145
 C         -3.7034880826        0.7624504489        4.3709293891
 C         -3.6574101802       -0.5333160701        3.8818243495
 C         -3.6820512342       -0.7256724101        2.5104034781
 C         -3.6398467752       -1.9389160846        1.7090999322
 C         -3.5645068649       -3.2728368121        2.0741293836
 C         -3.5322433237       -4.2329210114        1.0753702870
 C         -3.5745265927       -3.8709481911       -0.2626221109
 C         -3.6511275001       -2.5357711957       -0.6362338518
 C         -3.6840760612       -1.5791554770        0.3542310766
 C         -4.9411293645        0.4120022210       -0.5855501144
 C         -6.2775639478        0.1780927372       -0.3527367884
 C         -7.2076574698        0.7372266257       -1.2198859923
 C         -6.8002486118        1.5159233515       -2.2936163686
 C         -5.4570863910        1.7551041437       -2.5312407020
 C         -4.5213389404        1.1985333649       -1.6719071349
 C          1.9555396479        0.3542286733       -1.9637623058
 C          1.4934971550        0.0518462025       -3.2491650198
 C          2.3671685566       -0.3002590939       -4.2723834430
 C          3.7236801821       -0.3597665589       -4.0282027328
 C          4.2007169725       -0.1480617815       -2.7386965552
 C          3.3375373677        0.1451628589       -1.6786375320
 C          6.0617001090        0.6976343297        0.6600673445
 C          7.3509367727        0.3045377282        0.9348547778
 H          7.2715105034       -2.7966774420       -0.4436530744
 H          4.9724072046       -2.0780973802       -0.9441812757
 H          4.3254956198        0.4319919823        2.3212063447
 H          2.8751757347        1.3969433287        4.0362565287
 H          0.6344240638        2.2623837427        3.4188651826
 H         -0.1715439460        2.0277943991        1.1211399124
 H         -0.1021454880        2.2722253948       -2.8792140502
 H         -2.5089112052        2.4992167070       -3.3275928731
 H         -0.9147352129       -0.2401825106        0.4983873361
 H         -3.8531270834        2.5072113354        1.4623837833
 H         -3.8072403345        2.8484348028        3.9143238136
 H         -3.6851903058        0.9308813486        5.4378969742
 H         -3.6025169772       -1.3745836999        4.5566573383
 H         -3.5302923325       -3.5595311422        3.1147209530
 H         -3.4727920626       -5.2782155279        1.3416517979
 H         -3.5470513980       -4.6369288425       -1.0235787557
 H         -3.6838275155       -2.2534415791       -1.6786527249
 H         -6.5941228305       -0.4283220470        0.4834112762
 H         -8.2608361707        0.5630214582       -1.0563602059
 H         -7.5427573912        1.9403381554       -2.9535686099
 H         -5.1453304552        2.3613435253       -3.3688136121
 H          0.4347058203        0.0818742668       -3.4534026405
 H          1.9772902586       -0.5118471860       -5.2567499327
 H          4.4169012461       -0.5884264004       -4.8233988952
 H          5.2632057342       -0.2074041410       -2.5584209187
 H          5.7328292589        1.6883226179        0.9383919242
 H          8.0281332002        0.9688521535        1.4519354152
