  74
       -115.11836918
 N         10.4796028438       -1.3015280128       -0.3975017398
 C          9.3646833097       -1.0404765068       -0.3100154608
 C          7.9973056427       -0.7199544996       -0.2046953899
 C          7.3215897535       -0.1464042304       -1.2878483122
 C          5.9889056275        0.1738202344       -1.1771193950
 C          5.2769086114       -0.0816654922        0.0054114446
 C          3.8670089413        0.2491429523        0.1188058197
 C          2.9344407362       -0.7479103260        0.5452184778
 C          3.3205358350       -2.0772350773        0.7451620982
 C          2.4374375748       -3.0230232922        1.2558239270
 C          1.1538636560       -2.6469788776        1.5934308455
 C          0.7255071869       -1.3471530407        1.3450400726
 C          1.5662004782       -0.3992409713        0.7517453643
 C          1.1030128196        0.9038653915        0.3852968268
 C         -0.2983405941        1.2417145443        0.5538839961
 C         -0.6801119110        2.3985136654        1.2540015039
 C         -2.0051152490        2.7004743252        1.4911635517
 C         -2.9876230448        1.8406124224        1.0164798637
 C         -2.6152879960        0.6949609767        0.2919222926
 C         -1.3004114910        0.3902378821        0.0570139188
 C         -3.8337539705       -0.1087520384       -0.0929698671
 C         -3.7481559508       -1.5216305829        0.4337154768
 C         -3.5926889018       -1.9382149565        1.7374949183
 C         -3.4951514071       -3.3004579381        1.9883091353
 C         -3.5514158591       -4.2189075949        0.9508147309
 C         -3.7074243604       -3.8025052646       -0.3617411612
 C         -3.8043870098       -2.4451709627       -0.6198090308
 C         -3.9561786506       -1.7121470302       -1.8670531784
 C         -4.0769887855       -2.1499002063       -3.1754924873
 C         -4.2163712488       -1.2059769050       -4.1805337024
 C         -4.2338053398        0.1493999720       -3.8878390739
 C         -4.1121910710        0.5959227806       -2.5786253389
 C         -3.9746338913       -0.3399534289       -1.5774626233
 C         -4.9471706728        0.7183724431        0.4998522298
 C         -6.3020076461        0.4763463010        0.4675687318
 C         -7.1518407483        1.3895925731        1.0788199080
 C         -6.6483788534        2.5195801890        1.7073878998
 C         -5.2864237393        2.7670279792        1.7436043268
 C         -4.4307141379        1.8601830251        1.1358970088
 C          2.0206246972        1.8702213426       -0.1317355569
 C          1.5874871474        3.1084147661       -0.6162331235
 C          2.4899747725        4.0874828844       -1.0191428643
 C          3.8458012195        3.8459853781       -0.9367920296
 C          4.3011578581        2.5953432880       -0.5319657431
 C          3.4137432395        1.5688676637       -0.1922707763
 C          5.9661644235       -0.6677380877        1.0792250506
 C          7.3031924018       -0.9733048475        0.9841893939
 H          7.8545383994        0.0352746746       -2.2098176940
 H          5.4645182259        0.5883513292       -2.0253049454
 H          4.3235510185       -2.3837183795        0.4908823341
 H          2.7692683848       -4.0400115939        1.4001700607
 H          0.4689757860       -3.3562763256        2.0333123482
 H         -0.2795455139       -1.0713023677        1.6241562182
 H          0.0929695788        3.0331903494        1.6626489184
 H         -2.2707830497        3.5811114506        2.0570304175
 H         -1.0302435344       -0.4782720583       -0.5262905457
 H         -3.5471375478       -1.2214603620        2.5451227575
 H         -3.3729168438       -3.6483632421        3.0036122876
 H         -3.4720326034       -5.2737364388        1.1698174442
 H         -3.7484416420       -4.5221037560       -1.1658402258
 H         -4.0652461930       -3.2043199462       -3.4085056963
 H         -4.3135681071       -1.5296723771       -5.2066492957
 H         -4.3441090772        0.8667043714       -4.6876998533
 H         -4.1278273392        1.6518165564       -2.3499791825
 H         -6.6942978482       -0.4029412844       -0.0224818683
 H         -8.2180176397        1.2182355584        1.0637932373
 H         -7.3298135731        3.2153954186        2.1748295022
 H         -4.8986447215        3.6474945588        2.2342186974
 H          0.5294462603        3.3084570779       -0.6874818901
 H          2.1224474623        5.0370520697       -1.3780557114
 H          4.5578364122        4.6135067874       -1.2000475191
 H          5.3645040707        2.4211447684       -0.4739464664
 H          5.4399351176       -0.8416705305        2.0066283599
 H          7.8283385130       -1.4054970272        1.8237530390
