  74
       -115.11836918
 N         10.4796028438       -1.3015280128       -0.3975017398
 C          9.3646833097       -1.0404765068       -0.3100154608
 C          7.9973056427       -0.7199544996       -0.2046953899
 C          7.3215897535       -0.1464042304       -1.2878483122
 C          5.9889056275        0.1738202344       -1.1771193950
 C          5.2769086114       -0.0816654922        0.0054114446
 C          3.8670089413        0.2491429523        0.1188058197
 C          2.9344407362       -0.7479103260        0.5452184778
 C          3.3205358350       -2.0772350773        0.7451620982
 C          2.4374375748       -3.0230232922        1.2558239270
 C          1.1538636560       -2.6469788776        1.5934308455
 C          0.7255071869       -1.3471530407        1.3450400726
 C          1.5662004782       -0.3992409713        0.7517453643
 C          1.1030128196        0.9038653915        0.3852968268
 C         -0.2983405941        1.2417145443        0.5538839961
 C         -0.6801119110        2.3985136654        1.2540015039
 C         -2.0051152490        2.7004743252        1.4911635517
 C         -2.9876230448        1.8406124224        1.0164798637
 C         -2.6152879960        0.6949609767        0.2919222926
 C         -1.3004114910        0.3902378821        0.0570139188
 C         -3.8337539705       -0.1087520384       -0.0929698671
 C         -3.7481559508       -1.5216305829        0.4337154768
 C         -3.5926889018       -1.9382149565        1.7374949183
 C         -3.4951514071       -3.3004579381        1.9883091353
 C         -3.5514158591       -4.2189075949        0.9508147309
 C         -3.7074243604       -3.8025052646       -0.3617411612
 C         -3.8043870098       -2.4451709627       -0.6198090308
 C         -3.9561786506       -1.7121470302       -1.8670531784
 C         -4.0769887855       -2.1499002063       -3.1754924873
 C         -4.2163712488       -1.2059769050       -4.1805337024
 C         -4.2338053398        0.1493999720       -3.8878390739
 C         -4.1121910710        0.5959227806       -2.5786253389
 C         -3.9746338913       -0.3399534289       -1.5774626233
 C         -4.9471706728        0.7183724431        0.4998522298
 C         -6.3020076461        0.4763463010        0.4675687318
 C         -7.1518407483        1.3895925731        1.0788199080
 C         -6.6483788534        2.5195801890        1.7073878998
 C         -5.2864237393        2.7670279792        1.7436043268
 C         -4.4307141379        1.8601830251        1.1358970088
 C          2.0206246972        1.8702213426       -0.1317355569
 C          1.5874871474        3.1084147661       -0.6162331235
 C          2.4899747725        4.0874828844       -1.0191428643
 C          3.8458012195        3.8459853781       -0.9367920296
 C          4.3011578581        2.5953432880       -0.5319657431
 C          3.4137432395        1.5688676637       -0.1922707763
 C          5.9661644235       -0.6677380877        1.0792250506
 C          7.3031924018       -0.9733048475        0.9841893939
 H          7.8545383994        0.0352746746       -2.2098176940
 H          5.4645182259        0.5883513292       -2.0253049454
 H          4.3235510185       -2.3837183795        0.4908823341
 H          2.7692683848       -4.0400115939        1.4001700607
 H          0.4689757860       -3.3562763256        2.0333123482
 H         -0.2795455139       -1.0713023677        1.6241562182
 H          0.0929695788        3.0331903494        1.6626489184
 H         -2.2707830497        3.5811114506        2.0570304175
 H         -1.0302435344       -0.4782720583       -0.5262905457
 H         -3.5471375478       -1.2214603620        2.5451227575
 H         -3.3729168438       -3.6483632421        3.0036122876
 H         -3.4720326034       -5.2737364388        1.1698174442
 H         -3.7484416420       -4.5221037560       -1.1658402258
 H         -4.0652461930       -3.2043199462       -3.4085056963
 H         -4.3135681071       -1.5296723771       -5.2066492957
 H         -4.3441090772        0.8667043714       -4.6876998533
 H         -4.1278273392        1.6518165564       -2.3499791825
 H         -6.6942978482       -0.4029412844       -0.0224818683
 H         -8.2180176397        1.2182355584        1.0637932373
 H         -7.3298135731        3.2153954186        2.1748295022
 H         -4.8986447215        3.6474945588        2.2342186974
 H          0.5294462603        3.3084570779       -0.6874818901
 H          2.1224474623        5.0370520697       -1.3780557114
 H          4.5578364122        4.6135067874       -1.2000475191
 H          5.3645040707        2.4211447684       -0.4739464664
 H          5.4399351176       -0.8416705305        2.0066283599
 H          7.8283385130       -1.4054970272        1.8237530390
  74
       -115.11820264
 N         10.4791785044       -0.7768849592       -1.0765659724
 C          9.3650934252       -0.6279981182       -0.8417063407
 C          7.9982688537       -0.4460648158       -0.5547569334
 C          7.2550304297       -1.4807465942        0.0246784978
 C          5.9228667654       -1.2953457172        0.3106682888
 C          5.2784481628       -0.0845794301        0.0123737664
 C          3.8673345675        0.1034970605        0.3035300547
 C          3.3708356488       -0.1425467411        1.6218135253
 C          4.2196952011       -0.4833491704        2.6795870160
 C          3.7205888336       -0.8097394075        3.9369247047
 C          2.3586069246       -0.8076466663        4.1554596402
 C          1.4958190296       -0.4070419119        3.1402104332
 C          1.9758317334       -0.0081107535        1.8887343835
 C          1.1009883478        0.4903545943        0.8758884294
 C         -0.3057260265        0.7128142536        1.1654305961
 C         -0.6992388552        1.5154238186        2.2477794760
 C         -2.0260830296        1.8090793070        2.4884693917
 C         -2.9962839570        1.2788781091        1.6478375375
 C         -2.6124748706        0.4395277442        0.5875343029
 C         -1.2949694937        0.1596500719        0.3354421005
 C         -3.8217101767       -0.0230034047       -0.1877900015
 C         -3.9942961707       -1.5235746297       -0.1863041743
 C         -4.1598226636       -2.3627425699        0.8932262921
 C         -4.3080876484       -3.7226380886        0.6553173609
 C         -4.2897965813       -4.2233085221       -0.6377570466
 C         -4.1225912274       -3.3811895579       -1.7255197795
 C         -3.9743329893       -2.0232775584       -1.4962165436
 C         -3.7869516605       -0.9087509153       -2.4120742925
 C         -3.6779484016       -0.8676780375       -3.7921315236
 C         -3.4865466718        0.3597630575       -4.4062316149
 C         -3.4065744337        1.5255971470       -3.6596324666
 C         -3.5164784716        1.4925350388       -2.2758034817
 C         -3.7079488228        0.2739731862       -1.6625412310
 C         -4.9382031180        0.6978691778        0.5261669091
 C         -6.2848641516        0.6826079362        0.2406969445
 C         -7.1408366301        1.4180576133        1.0506373329
 C         -6.6516368966        2.1482775361        2.1243033031
 C         -5.2980038263        2.1661329075        2.4159194367
 C         -4.4359060778        1.4368779428        1.6105731828
 C          1.6063396993        0.7850872299       -0.4289493888
 C          0.8021764704        1.3532032952       -1.4227069670
 C          1.2739414479        1.5527315520       -2.7160716632
 C          2.5638894517        1.1874350679       -3.0398607903
 C          3.4077205802        0.6874790760       -2.0529222640
 C          2.9780642164        0.5335021975       -0.7309028855
 C          6.0349947910        0.9402132535       -0.5774900312
 C          7.3724279818        0.7709830657       -0.8480371506
 H          7.7357816993       -2.4243216583        0.2385131688
 H          5.3461722916       -2.1058734572        0.7320497964
 H          5.2877429120       -0.4879287599        2.5256936174
 H          4.4039395337       -1.0771191653        4.7287101357
 H          1.9560796858       -1.1001958577        5.1135863269
 H          0.4320830353       -0.4121197143        3.3217454711
 H          0.0668798937        1.9565743847        2.8690945014
 H         -2.3012223367        2.4569619134        3.3075329089
 H         -1.0136695232       -0.4991905654       -0.4735153572
 H         -4.1764384921       -1.9714290609        1.9002405803
 H         -4.4405356741       -4.3982793759        1.4874836952
 H         -4.4077213724       -5.2851288007       -0.7981650710
 H         -4.1090806546       -3.7765041857       -2.7303821826
 H         -3.7379385144       -1.7727783564       -4.3781621718
 H         -3.3973511426        0.4099142673       -5.4817179235
 H         -3.2554991071        2.4707711879       -4.1603155789
 H         -3.4527375449        2.4005341369       -1.6931881051
 H         -6.6656381779        0.1127085066       -0.5943666174
 H         -8.2004072383        1.4215602542        0.8418606083
 H         -7.3374694843        2.7127028277        2.7391635303
 H         -4.9215129472        2.7377468500        3.2512168424
 H         -0.2081657476        1.6498033299       -1.1874672686
 H          0.6183989340        1.9786031456       -3.4606892846
 H          2.9307308714        1.2989518279       -4.0489944414
 H          4.4139439824        0.4051979823       -2.3219210604
 H          5.5611797315        1.8891194522       -0.7829650862
 H          7.9501649655        1.5738106034       -1.2825595696
  74
       -115.11809043
 N         10.5822738881       -1.1044900225        0.1331904820
 C          9.4547754400       -0.8884614214        0.1073069356
 C          8.0722514823       -0.6208723006        0.0808682483
 C          7.4714753295       -0.1225903445       -1.0804994630
 C          6.1240040018        0.1528025733       -1.0964887801
 C          5.3242297970       -0.0740494950        0.0343209998
 C          3.9022935376        0.2229923150        0.0337676348
 C          2.9711535415       -0.7839681425        0.4414830469
 C          3.3786796100       -2.1010222287        0.6753054762
 C          2.4978691718       -3.0593128558        1.1663773799
 C          1.1955392072       -2.7055615354        1.4531211301
 C          0.7498598385       -1.4175543921        1.1758998488
 C          1.5905755781       -0.4590268579        0.5995069339
 C          1.1222706594        0.8356532022        0.2120106830
 C         -0.2709002203        1.1928625219        0.4087512819
 C         -0.6045865740        2.3599795447        1.1169173454
 C         -1.9118589668        2.6772860757        1.4202846712
 C         -2.9256219537        1.8243256508        1.0022647138
 C         -2.6046020073        0.6788259582        0.2533642196
 C         -1.3060384868        0.3581274766       -0.0460961104
 C         -3.8510163925       -0.1079009338       -0.0713714091
 C         -3.7557920168       -1.5362223843        0.4077123910
 C         -3.5102099281       -1.9936330030        1.6837059590
 C         -3.4307106447       -3.3644722022        1.8898934215
 C         -3.5945000059       -4.2513075926        0.8365116962
 C         -3.8405174387       -3.7938854700       -0.4482946417
 C         -3.9183761867       -2.4277271870       -0.6622933551
 C         -4.1434504707       -1.6560092537       -1.8747025180
 C         -4.3762147162       -2.0527074886       -3.1811388601
 C         -4.5633470941       -1.0770887419       -4.1473289549
 C         -4.5178647215        0.2693558154       -3.8188115129
 C         -4.2849083239        0.6747862062       -2.5114120795
 C         -4.0996832143       -0.2927742957       -1.5488521142
 C         -4.9193095877        0.7138883997        0.6074555922
 C         -6.2732679511        0.4723748741        0.6695056671
 C         -7.0764163316        1.3801278862        1.3484089349
 C         -6.5285357489        2.5053316862        1.9479064546
 C         -5.1673373816        2.7526324376        1.8880282538
 C         -4.3578745158        1.8500979368        1.2140304484
 C          2.0356228691        1.7951655490       -0.3260254024
 C          1.5872425969        3.0066182249       -0.8607821321
 C          2.4779988944        3.9862187628       -1.2878176670
 C          3.8364317447        3.7730215991       -1.1741111072
 C          4.3084124162        2.5491656924       -0.7107975488
 C          3.4348710147        1.5186156911       -0.3478265607
 C          5.9382526222       -0.5940615916        1.1852636617
 C          7.2877073498       -0.8534867954        1.2166098276
 H          8.0745626958        0.0387542650       -1.9622827940
 H          5.6600953792        0.5083559254       -2.0049696864
 H          4.3978314111       -2.3870567363        0.4640872776
 H          2.8453232235       -4.0671183071        1.3365387694
 H          0.5100536826       -3.4235554348        1.8778663560
 H         -0.2686514632       -1.1597518906        1.4208528158
 H          0.1953685235        2.9890837445        1.4799419824
 H         -2.1390850339        3.5630119912        1.9948777922
 H         -1.0756364022       -0.5110384249       -0.6452441395
 H         -3.3820430482       -1.3016556819        2.5039618904
 H         -3.2389035679       -3.7441869062        2.8827534517
 H         -3.5286036229       -5.3137414274        1.0209576492
 H         -3.9647816026       -4.4889444389       -1.2653027899
 H         -4.4141033011       -3.0999025167       -3.4420182843
 H         -4.7489432646       -1.3684428125       -5.1709059008
 H         -4.6678990254        1.0118331374       -4.5886786775
 H         -4.2531527319        1.7236706911       -2.2540492922
 H         -6.6999778264       -0.4032747833        0.2022792579
 H         -8.1407677926        1.2080907273        1.4100272149
 H         -7.1742147239        3.1968855013        2.4694328766
 H         -4.7447690641        3.6288626445        2.3569417866
 H          0.5264555425        3.1847703714       -0.9497640846
 H          2.0995409306        4.9150123981       -1.6875692068
 H          4.5388176184        4.5429715289       -1.4556190660
 H          5.3736580558        2.4010935337       -0.6242051342
 H          5.3398629096       -0.7524600336        2.0706949764
 H          7.7532620382       -1.2311534136        2.1154366459
  74
       -115.11789162
 N         10.4791116447       -0.9229173170       -0.9831453183
 C          9.3658359086       -0.7449563711       -0.7654503606
 C          8.0002249908       -0.5261318089       -0.4986127609
 C          7.0200834906       -1.1985025437       -1.2372857895
 C          5.6883366053       -0.9739438437       -0.9778855231
 C          5.2857158707       -0.0903784505        0.0353311895
 C          3.8756697103        0.1319408502        0.3117296842
 C          3.3650957615       -0.0801258498        1.6308384100
 C          4.1721521054       -0.5889891316        2.6539361693
 C          3.6650335029       -0.8551141897        3.9214445345
 C          2.3222955962       -0.6685773615        4.1736307243
 C          1.4854982198       -0.2126613875        3.1605125368
 C          1.9777490224        0.1205130461        1.8943570454
 C          1.1044538508        0.5492325462        0.8459043935
 C         -0.3030788070        0.7811218953        1.1184666157
 C         -0.7006428711        1.6459266940        2.1514249996
 C         -2.0298024692        1.9219774483        2.3968666942
 C         -2.9993748877        1.3204877249        1.6045723131
 C         -2.6111086478        0.4406589769        0.5786857819
 C         -1.2914527351        0.1678397848        0.3295686826
 C         -3.8191676338       -0.0639732162       -0.1716641194
 C         -3.9499049245       -1.5667565506       -0.2052266246
 C         -4.0600497435       -2.4390693541        0.8551124484
 C         -4.1788639467       -3.7958692150        0.5845538253
 C         -4.1869972720       -4.2617986380       -0.7216326019
 C         -4.0764495505       -3.3867803044       -1.7904853419
 C         -3.9574276417       -2.0319627425       -1.5284143406
 C         -3.8259195607       -0.8902438381       -2.4201296608
 C         -3.7652436220       -0.8096395226       -3.8015562876
 C         -3.6210531374        0.4378718522       -4.3877160077
 C         -3.5385847904        1.5847189298       -3.6124405598
 C         -3.6020825756        1.5121845277       -2.2271558269
 C         -3.7482451141        0.2736351286       -1.6423125119
 C         -4.9454036281        0.6250995863        0.5590429462
 C         -6.2981574364        0.5417359149        0.3169301671
 C         -7.1606605206        1.2697385204        1.1264841287
 C         -6.6716157851        2.0631612257        2.1547610337
 C         -5.3120430604        2.1511346190        2.4013689408
 C         -4.4435430170        1.4271084181        1.5976467647
 C          1.6162595415        0.7636871204       -0.4735524754
 C          0.8144213010        1.2803104396       -1.4970768132
 C          1.3212356292        1.5331104847       -2.7674763345
 C          2.6606778747        1.3308478690       -3.0241339563
 C          3.4944250754        0.8716981825       -2.0100123836
 C          3.0020097543        0.5528830045       -0.7399331280
 C          6.2800712262        0.5700595074        0.7730946025
 C          7.6141125535        0.3663868813        0.5079959208
 H          7.3193515166       -1.8962941939       -2.0059469860
 H          4.9340114788       -1.5121982054       -1.5334768695
 H          5.2108990159       -0.8030137050        2.4559609164
 H          4.3230026933       -1.2283303189        4.6916499911
 H          1.9092939585       -0.8942694200        5.1453879950
 H          0.4271506410       -0.1349477378        3.3547924609
 H          0.0638139983        2.1425870469        2.7316258621
 H         -2.3086307303        2.6089826287        3.1821501423
 H         -1.0080852034       -0.5332726426       -0.4422581969
 H         -4.0555946892       -2.0756825628        1.8726953224
 H         -4.2670925280       -4.4967950794        1.4014931894
 H         -4.2817563444       -5.3217992461       -0.9074407612
 H         -4.0833284400       -3.7543693934       -2.8057037945
 H         -3.8261185545       -1.6995836729       -4.4100551625
 H         -3.5703840215        0.5189447757       -5.4637374499
 H         -3.4238896081        2.5460808284       -4.0913878035
 H         -3.5386732769        2.4053559690       -1.6220455553
 H         -6.6784630844       -0.0760317427       -0.4836210238
 H         -8.2254073382        1.2179523624        0.9536211238
 H         -7.3629754879        2.6200444074        2.7702752968
 H         -4.9354833456        2.7700346974        3.2022312293
 H         -0.2218671420        1.5076944347       -1.3014227866
 H          0.6624940259        1.9066260013       -3.5369920564
 H          3.0741102565        1.5459890698       -3.9979538919
 H          4.5509902812        0.7807172182       -2.2091238579
 H          5.9854072714        1.2781717037        1.5342495637
 H          8.3720870827        0.8954793112        1.0672156041
  74
       -115.11764017
 N         10.6186925567       -0.6947360946       -0.6509843629
 C          9.4877926277       -0.5624349885       -0.5003630583
 C          8.1014303118       -0.3987117179       -0.3136803262
 C          7.1937931791       -1.0390825636       -1.1652012580
 C          5.8409890182       -0.8713658918       -0.9825944775
 C          5.3437034596       -0.0779468191        0.0630010071
 C          3.9158082548        0.0928959485        0.2699337197
 C          3.3482436111       -0.2049408016        1.5494454126
 C          4.1060087021       -0.7977010510        2.5647783188
 C          3.5465703468       -1.1321500759        3.7936468317
 C          2.2010364422       -0.9237781907        4.0122418660
 C          1.4117372915       -0.3862446341        3.0012999154
 C          1.9562980876        0.0046667435        1.7733675356
 C          1.1289889547        0.5045006211        0.7194119936
 C         -0.2742648793        0.7797739724        0.9840704425
 C         -0.6313766943        1.6381883504        2.0365317709
 C         -1.9486584863        1.9337567948        2.3182913604
 C         -2.9461238222        1.3484517768        1.5495011106
 C         -2.5987698527        0.4818075715        0.4981231344
 C         -1.2886938449        0.2001507162        0.2049353176
 C         -3.8381571896       -0.0388924654       -0.1873498178
 C         -3.9409694048       -1.5447720219       -0.1960816464
 C         -3.9386663199       -2.4070933862        0.8779157393
 C         -4.0504854535       -3.7689849458        0.6313902323
 C         -4.1631792546       -4.2491335538       -0.6646849304
 C         -4.1649379558       -3.3839550346       -1.7472070472
 C         -4.0519316952       -2.0241950613       -1.5092436234
 C         -4.0193942718       -0.8895287971       -2.4188790313
 C         -4.0933879925       -0.8218870306       -3.8002846735
 C         -4.0323156908        0.4221788453       -4.4078152675
 C         -3.8984799314        1.5781423642       -3.6535182475
 C         -3.8254827420        1.5184964767       -2.2681338442
 C         -3.8881427315        0.2833623954       -1.6615745131
 C         -4.9346332539        0.6326343081        0.6041551254
 C         -6.2970808589        0.5285628941        0.4358572541
 C         -7.1251708616        1.2436525583        1.2916758093
 C         -6.5931918837        2.0453271821        2.2916328482
 C         -5.2236002536        2.1537794552        2.4639426969
 C         -4.3897868038        1.4421384969        1.6141784016
 C          1.6846579468        0.7527230612       -0.5743817113
 C          0.9151554785        1.2926633545       -1.6105467707
 C          1.4681682073        1.5981206970       -2.8497188626
 C          2.8201143955        1.4260364602       -3.0580865149
 C          3.6194696417        0.9365082385       -2.0301946598
 C          3.0817504270        0.5586078460       -0.7955682334
 C          6.2668859583        0.5484612050        0.9156511876
 C          7.6209677985        0.4021426253        0.7289990761
 H          7.5662048870       -1.6688838703       -1.9601676976
 H          5.1441311580       -1.3916813480       -1.6235616264
 H          5.1468078039       -1.0227419196        2.3904572003
 H          4.1671197538       -1.5710287049        4.5602899639
 H          1.7488673647       -1.1957655836        4.9541929446
 H          0.3497657676       -0.2881691143        3.1648902167
 H          0.1566483581        2.1033503243        2.6112867816
 H         -2.1975827401        2.6114625503        3.1213618556
 H         -1.0354225713       -0.4946088908       -0.5830147374
 H         -3.8527160052       -2.0321519384        1.8876070770
 H         -4.0501538544       -4.4625879991        1.4592660208
 H         -4.2505729329       -5.3128619238       -0.8316818716
 H         -4.2526411229       -3.7630778182       -2.7545702183
 H         -4.1977312466       -1.7188837547       -4.3924293686
 H         -4.0904059813        0.4936509894       -5.4841824053
 H         -3.8525651466        2.5367010714       -4.1492277804
 H         -3.7242596925        2.4190574447       -1.6794356950
 H         -6.7114250232       -0.0955728594       -0.3425153122
 H         -8.1968291816        1.1739864128        1.1780203379
 H         -7.2581965130        2.5924391603        2.9439251083
 H         -4.8134957775        2.7787916492        3.2432897822
 H         -0.1313354809        1.4965688265       -1.4463778423
 H          0.8362250413        1.9908655399       -3.6320290784
 H          3.2692457372        1.6864343698       -4.0046296962
 H          4.6842610264        0.8686747897       -2.1899942031
 H          5.8994219718        1.1859527693        1.7067350490
 H          8.3223292471        0.9043976326        1.3793851149
  74
       -115.11763690
 N         10.1853652520       -1.4161964542       -1.4502116323
 C          9.1134984066       -1.1385784462       -1.1450374182
 C          7.7975581898       -0.7922952892       -0.7822711411
 C          6.9564477729       -0.1603889380       -1.7060490268
 C          5.6774013827        0.1881255857       -1.3443546386
 C          5.1797536946       -0.0965839419       -0.0617387188
 C          3.8180571530        0.2677687016        0.2868128638
 C          2.9156246796       -0.7047288689        0.8186103577
 C          3.2903463651       -2.0372448364        1.0215624321
 C          2.4322556230       -2.9504871083        1.6256094272
 C          1.1811856803       -2.5447922551        2.0424727975
 C          0.7555018070       -1.2458609917        1.7845633846
 C          1.5724574753       -0.3278621815        1.1173352344
 C          1.0933880035        0.9704104190        0.7527197311
 C         -0.3223355066        1.2655623631        0.8801148661
 C         -0.7868242856        2.4133486283        1.5421459263
 C         -2.1336507149        2.6987060917        1.6431125367
 C         -3.0519784705        1.8325221438        1.0639223082
 C         -2.5950803684        0.6746233087        0.4096816080
 C         -1.2607136800        0.3812183895        0.3193554041
 C         -3.7563752941       -0.1269014910       -0.1246782982
 C         -3.7976544570       -1.5238722499        0.4481644637
 C         -3.8721151726       -1.9022532055        1.7705022754
 C         -3.8816661726       -3.2580951815        2.0696145667
 C         -3.8169283061       -4.2079598403        1.0612778514
 C         -3.7401451564       -3.8299091380       -0.2697141843
 C         -3.7294222228       -2.4791314339       -0.5757990784
 C         -3.6503272371       -1.7830738915       -1.8505840342
 C         -3.5639809368       -2.2598012316       -3.1480979915
 C         -3.4938784581       -1.3456668842       -4.1872160677
 C         -3.5097659667        0.0184868888       -3.9384834299
 C         -3.5971878390        0.5038975250       -2.6404522394
 C         -3.6677272253       -0.4022479666       -1.6054911008
 C         -4.9314007833        0.7284223189        0.2793947093
 C         -6.2693810323        0.5068814247        0.0433829044
 C         -7.1868060122        1.4383006083        0.5128955426
 C         -6.7655935264        2.5639049326        1.2063235751
 C         -5.4208520109        2.7905282819        1.4473000068
 C         -4.4976278419        1.8669828579        0.9797858506
 C          1.9961067670        1.9421903147        0.2223290741
 C          1.5691835977        3.2078813721       -0.1935330616
 C          2.4719711376        4.1783027528       -0.6148557418
 C          3.8230427442        3.8996864850       -0.6312153569
 C          4.2661955832        2.6220002806       -0.3051130437
 C          3.3738914432        1.6097249372        0.0607787481
 C          6.0333881405       -0.7351071543        0.8511379365
 C          7.3214095446       -1.0705622100        0.5038124196
 H          7.3204748578        0.0456248135       -2.7021591364
 H          5.0235283059        0.6557695477       -2.0661389285
 H          4.2623982200       -2.3733227862        0.6955779547
 H          2.7577381880       -3.9689009072        1.7754319501
 H          0.5197233736       -3.2313751317        2.5490420950
 H         -0.2279907417       -0.9437880843        2.1108331121
 H         -0.0673831965        3.0604448890        2.0229809882
 H         -2.4659301459        3.5800010242        2.1717216893
 H         -0.9226492625       -0.4960890404       -0.2131480408
 H         -3.9233050679       -1.1612707008        2.5554629785
 H         -3.9406060392       -3.5765685482        3.1000600272
 H         -3.8264206026       -5.2572796215        1.3181075562
 H         -3.6888548513       -4.5736877304       -1.0509355112
 H         -3.5502191515       -3.3212013607       -3.3466816428
 H         -3.4253338623       -1.6995609685       -5.2056175294
 H         -3.4529532146        0.7120231366       -4.7645076693
 H         -3.6093279463        1.5667197611       -2.4463442217
 H         -6.5966892364       -0.3696798616       -0.4966186268
 H         -8.2408794418        1.2844290170        0.3353392487
 H         -7.4984307489        3.2734530782        1.5619571063
 H         -5.0983085095        3.6686020031        1.9869281758
 H          0.5152042889        3.4375747931       -0.1982584824
 H          2.1087065239        5.1500492927       -0.9140203732
 H          4.5382219639        4.6572878786       -0.9135919060
 H          5.3248717043        2.4136487036       -0.3315266853
 H          5.6834230570       -0.9223057350        1.8559090665
 H          7.9762762979       -1.5454062878        1.2200202664
