  69
       -112.02599056
 N        -10.4875418964       -2.8154119854        0.6314950841
 C         -9.4555435614       -2.3273370123        0.5068511326
 C         -8.1909886384       -1.7254644667        0.3573066101
 C         -7.6975189252       -1.4273600649       -0.9181682106
 C         -6.4598436273       -0.8457422890       -1.0594169645
 C         -5.6781752761       -0.5204949423        0.0610533842
 C         -4.3791467214        0.1088407038       -0.0919513503
 C         -4.0808780395        1.3127830305        0.6225794857
 C         -5.0413918539        1.9699216578        1.3958644574
 C         -4.7218805355        3.0933173218        2.1556413132
 C         -3.4310275444        3.5769482102        2.1542715937
 C         -2.4713214370        2.9847151926        1.3380644995
 C         -2.7815077619        1.8938376284        0.5191931354
 C         -1.8304392659        1.3480766584       -0.3934371209
 C         -0.5266460564        1.9884745366       -0.5508063678
 C         -0.4292292905        3.3391642613       -0.9044356636
 C          0.8057557742        3.9431393780       -1.0566166249
 C          1.9685114184        3.2252979849       -0.8513097734
 C          1.8899136186        1.8770959677       -0.4939170115
 C          3.1055440560        1.1284613542       -0.2699715079
 N          4.3166886275        1.5991370678       -0.3503280911
 C          5.1304252104        0.5423363810       -0.0608706832
 C          6.5498440808        0.4627111616        0.0041532712
 C          7.3562651989        1.5760743151       -0.2501447744
 C          8.7233810953        1.4716424720       -0.1803543702
 C          9.3003495920        0.2462887185        0.1466970112
 C          8.5168702845       -0.8556947732        0.3989977295
 C          7.1162805577       -0.7920456103        0.3377430026
 C          6.2702192202       -1.9445567942        0.5989014565
 C          6.7876645383       -3.2046908198        0.9324747977
 C          5.9680202595       -4.2829942518        1.1735803843
 C          4.5824282237       -4.1581210595        1.0934920702
 C          4.0323681642       -2.9430642588        0.7713829290
 C          4.8569681400       -1.8382273354        0.5245514336
 C          4.3367949736       -0.5653799704        0.1906247776
 O          3.0441668023       -0.1899131506        0.0565539792
 C          0.6489672994        1.2658080751       -0.3517673316
 C         -2.1463038694        0.1819814619       -1.1523687515
 C         -1.2641181883       -0.3360408641       -2.1064699249
 C         -1.5321592510       -1.5285440777       -2.7729425360
 C         -2.6849724215       -2.2285512587       -2.4877904141
 C         -3.6092710533       -1.7034029978       -1.5871751942
 C         -3.3978760259       -0.4752546373       -0.9551125061
 C         -6.1907839506       -0.8188525568        1.3340455262
 C         -7.4184472625       -1.4192798665        1.4835710549
 H         -8.2997129597       -1.6530943976       -1.7862579654
 H         -6.0954595984       -0.5913617145       -2.0440712436
 H         -6.0585837384        1.6097491976        1.4026624390
 H         -5.4870708987        3.5689950921        2.7500736203
 H         -3.1602470408        4.4226255389        2.7682649332
 H         -1.4652250406        3.3749052816        1.3424338284
 H         -1.3339561338        3.9005584560       -1.0871119351
 H          0.8592736715        4.9838483757       -1.3401346728
 H          2.9405901557        3.6776554441       -0.9592500553
 H          6.8705274380        2.5066072558       -0.4998356531
 H          9.3501122198        2.3287398167       -0.3765026286
 H         10.3757633284        0.1598158262        0.2028561796
 H          9.0063860846       -1.7835234152        0.6484181733
 H          7.8536640358       -3.3479783094        1.0059439613
 H          6.4036271017       -5.2381068553        1.4278541850
 H          3.9499989906       -5.0122015179        1.2840087242
 H          2.9623642378       -2.8142025246        0.7018523964
 H          0.5962457670        0.2292403185       -0.0534110693
 H         -0.3563886571        0.2004076597       -2.3360341135
 H         -0.8257589536       -1.9047653156       -3.4974525721
 H         -2.8860563913       -3.1755151920       -2.9654327498
 H         -4.5028721550       -2.2681003002       -1.3702705570
 H         -5.5859948156       -0.6099070213        2.2044601932
 H         -7.7932285500       -1.6639737995        2.4668204498
