121
 energy: -174.038385521245 gnorm: 0.000072786102 xtb: 6.7.1 (edcfbbe)
C           12.27823131408487       -1.60325889623491        0.15260764458608
C           11.84265022889186       -0.13171508371086        0.19779139835283
C           12.29552877265741        0.50551386909469        1.51910699031988
C           12.53611803842067        0.60654698779055       -0.95032457039405
C           10.32636251231511       -0.06264734343203        0.10897082266659
C            9.55462287218334       -0.68916890339327        1.08560925970979
C            8.17491417510850       -0.65561004482539        1.04822044404316
C            7.52397441133060        0.01098462573612        0.01895151023066
N            6.10270442038560        0.04477651709852       -0.02648388698210
C            5.43896046633823        1.15751664601236        0.46451487438224
C            6.15947371897222        2.23303434733296        0.99093349497044
C            5.50859528834806        3.34807082057602        1.47796040480829
C            4.12630212478980        3.41609941815591        1.45495994804067
C            3.40814550128661        2.35011281327181        0.94616326182831
C            4.04335464011509        1.22155042305611        0.45294761443352
C            3.18729294317257        0.08443265435428       -0.06647620840395
C            4.02666967717031       -1.05630595694294       -0.60544081708894
C            3.37600380515637       -2.15180908160870       -1.15039582064469
C            4.07966594352682       -3.22687456173549       -1.66034857401778
C            5.46326459509524       -3.20294239519661       -1.62939849902720
C            6.12933455514155       -2.12096424231003       -1.09111303525349
C            5.42296541157539       -1.03561826556427       -0.56563001918286
C            2.32246630717019        0.60898375026462       -1.19349063256414
C            2.95173007886514        1.13073290916323       -2.31292458515035
C            2.22795979612225        1.60323955017253       -3.39132316856434
C            0.84580310285721        1.53898843772753       -3.35436321171865
C            0.20129505913683        1.02327494336070       -2.24851818532633
C            0.92713400961174        0.56493982179017       -1.14587238929921
N            0.26994263299140        0.05388181381173       -0.03586297027370
C           -1.14914636504261        0.03269338182006       -0.02232838931594
C           -1.84928642360301        1.21278834271866        0.18916585422130
C           -3.23916963496270        1.18618072757520        0.19372057488709
C           -3.94659220014030       -0.01209139182168        0.01082228746477
C           -3.20577963862009       -1.18688916893011       -0.19105967341838
C           -1.81602931613712       -1.16899291883783       -0.21913715115845
O           -3.81278371494428       -2.37834525547514       -0.37678599708027
C           -5.16399154978034       -2.51899408257154       -0.26832565705513
C           -5.62137228709229       -3.83183898695486       -0.39463553017462
C           -6.95943604749940       -4.11538734803732       -0.26982796065362
C           -7.88927326968592       -3.10612174075062        0.00142080321879
C           -9.35782822017100       -3.46840944005675        0.16243467586517
C           -9.50370325428119       -4.45181020443709        1.33215584737425
C           -9.85630068315971       -4.12317478920545       -1.13356891218133
C          -10.24049106278656       -2.25039694791003        0.44996477500118
C           -7.41484270055836       -1.81388774665071        0.11038418376323
C           -6.06443290145885       -1.46488876797415       -0.03893197112360
B           -5.47147664118567       -0.03704668984787        0.03254802766536
C           -6.10843866300895        1.37079673466266        0.11993398962314
C           -7.47332048500765        1.67484173902926        0.00923241224995
C           -7.98630788640961        2.95156647796929        0.12592339631222
C           -9.47014204611536        3.26465696366740        0.00752672264570
C          -10.32119356127681        2.01575692486479       -0.24006296135555
C           -9.94918849885048        3.91683310162292        1.31213938273004
C           -9.68414721045391        4.23024232391177       -1.16651515052768
C           -7.08224242463169        3.99223802364911        0.36347045993497
C           -5.73268576152252        3.75281165517298        0.45171177176525
C           -5.23671174929909        2.45462842807530        0.31970458262525
O           -3.87927384491806        2.35799847542347        0.39277063189881
C            0.96073525001496       -0.43131555198466        1.06531963840247
C            0.26703364717606       -0.89639558810874        2.18572364248138
C            0.94415174294087       -1.38633782989736        3.28368841845041
C            2.32786139113488       -1.41703043402404        3.29498759252897
C            3.01960131937638       -0.93822242390269        2.19853836983669
C            2.35727835601372       -0.44236138484542        1.08639892244341
C            8.27557398714629        0.63961158607298       -0.96171992142988
C            9.65822146605541        0.60221297522368       -0.91250907690362
H           11.86785831320513       -2.16522771655014        0.98689716396926
H           11.93910797619396       -2.06761497141378       -0.77115603082048
H           13.36294458890759       -1.67359794936882        0.19595788881997
H           11.88517146159377       -0.02137211600611        2.37597083581731
H           13.38061258537269        0.48165591996269        1.59297748770545
H           11.96916634107410        1.54235873379454        1.56799091658127
H           13.61478785353109        0.52234317948288       -0.83487323610157
H           12.28069830174198        1.66368948034033       -0.94777335815919
H           12.26785182521490        0.17582902963149       -1.91224143216639
H           10.03240022213606       -1.21611796893132        1.89745813437006
H            7.59357800605575       -1.14855090259519        1.81370499020476
H            7.23777747224738        2.18922810970497        1.01928902713638
H            6.08761986849533        4.16707038184357        1.87882314674016
H            3.61359196776599        4.28691342620161        1.83373118527840
H            2.32817698973077        2.38533401885188        0.92997367411515
H            2.29562024132047       -2.15449161242734       -1.17310701891422
H            3.55493956618276       -4.07168781977901       -2.07941800692687
H            6.03141672520722       -4.03059319518187       -2.02802695871621
H            7.20878730296008       -2.11112478122124       -1.07752991807626
H            4.03184795625324        1.16076038918667       -2.33225984699184
H            2.73568173603880        2.00850179373587       -4.25308692253855
H            0.26163374612581        1.88954433191772       -4.19246939228965
H           -0.87644271077251        0.96936803526664       -2.23796765599975
H           -1.32624345843697        2.14390808855522        0.33793570074025
H           -1.26698610962997       -2.08304118668719       -0.37962940137986
H           -4.90008229453840       -4.61257373635146       -0.58220430158523
H           -7.28151126827571       -5.14038855128458       -0.37225718724401
H           -8.94673963899918       -5.36714286435414        1.15264296152788
H          -10.55029504856914       -4.71282454555114        1.47453958425016
H           -9.13202957117690       -4.00138357099469        2.25026398341496
H          -10.91129754457413       -4.37388207011211       -1.04489798139103
H           -9.30847468267669       -5.03490238704893       -1.35443169500635
H           -9.73294405939240       -3.44001162635220       -1.97143265677271
H           -9.94612547896270       -1.76304791501065        1.37670936063679
H          -10.19405036211959       -1.53145862723146       -0.36477723476528
H          -11.27526487298214       -2.57053271674140        0.55436998314320
H           -8.10078999453817       -1.01861552588400        0.34001053443068
H           -8.13935430059817        0.85629043051152       -0.19577992809747
H          -10.03946626194882        1.52735174011730       -1.17016212491403
H          -11.36847366462168        2.30131860994292       -0.31626012579551
H          -10.22670332548591        1.30824150745605        0.58053119801537
H           -9.77518359274219        3.24807389891534        2.15263491723184
H           -9.42674280402529        4.84944448562082        1.50551781914552
H          -11.01457953628471        4.12996659826041        1.25526075288409
H           -9.14975598094076        5.16385780942716       -1.01457657387457
H          -10.74233227896321        4.45790326694910       -1.27691120581879
H           -9.32905482710600        3.78117546771060       -2.09181955393478
H           -7.43423625720274        5.00709808242718        0.46840848812942
H           -5.03214226923077        4.55766874065013        0.61429818577971
H           -0.81168593876299       -0.86830044158214        2.19524754763708
H            0.38433672012504       -1.74300252332601        4.13571709328963
H            2.86135310533068       -1.80195415456395        4.15051495125329
H            4.10016871529940       -0.94338104390191        2.19837798740236
H            7.77313186337996        1.16106491165532       -1.76341092374809
H           10.20674545447398        1.10335540109445       -1.69289737465895
