121
 energy: -173.945421630642 gnorm: 0.000094772115 xtb: 6.7.1 (edcfbbe)
C           12.31410225319424       -1.50332118127948        0.31473122343980
C           11.85677532223815       -0.05954587888088        0.06260293760266
C           12.33521931658788        0.84630848213225        1.20612086191992
C           12.50588067152479        0.42726295913848       -1.23570065598302
C           10.33800111792593       -0.02569710329180        0.00755344895028
C            9.60367521900484       -0.43905738599108        1.11764100998876
C            8.22301949883051       -0.42789260853346        1.11625427519405
C            7.53514935402567        0.00190368178051       -0.01013625087414
N            6.11117314354074        0.01495486969780       -0.02000454211793
C            5.44817573406394        1.16687407700199        0.36569871863442
C            6.17148542191372        2.29798163040649        0.75683864321142
C            5.52120329358939        3.45181874020054        1.14154942567791
C            4.13715112532441        3.50594275905553        1.14633340027495
C            3.41651128029125        2.39003041726007        0.76402062758504
C            4.05149349342075        1.22133565350768        0.37422051556512
C            3.19604109373119        0.03599015662577       -0.02552358326035
C            4.03587494032160       -1.15838036637313       -0.43229309518237
C            3.38584171750394       -2.31519938376161       -0.83259354707744
C            4.09194411654324       -3.43985337535080       -1.21639455140152
C            5.47658070186852       -3.40712688685341       -1.20148356126549
C            6.14170482708940       -2.26534626932877       -0.80635668439217
C            5.43312312668546       -1.12513344571938       -0.41466567972652
C            2.34528967914586        0.43747510206127       -1.21081959494179
C            2.98296985497696        0.83083157039425       -2.37685082771183
C            2.26492181667241        1.19071396086530       -3.50176139198354
C            0.87956644604495        1.14675032584932       -3.46439185139764
C            0.22644066141528        0.75910215608955       -2.31478942252816
C            0.94641950878464        0.40780936818250       -1.16605490138262
N            0.27902233632018        0.02944511339517       -0.01709961862782
C           -1.14410106503004        0.02040036977485       -0.01427278322975
C           -1.85055293766858        1.21962139785487        0.12332341861358
C           -3.23801951823690        1.19669020848308        0.12008766707803
C           -3.96970058245339        0.00088452016811       -0.00473057260488
C           -3.22248292322139       -1.18465740539073       -0.13538605015777
C           -1.83488192124310       -1.18837425342507       -0.14773481422823
O           -3.83771306237872       -2.39049497478275       -0.26765368219968
C           -5.19388039244143       -2.51652072991569       -0.19159613944051
C           -5.65340687017382       -3.82723642360252       -0.27410869403628
C           -7.00343227247981       -4.10432759747326       -0.16853561573739
C           -7.92417170184617       -3.07243928390099        0.04383111732850
C           -9.39930406054384       -3.41213357747965        0.17706377932167
C           -9.58599283116277       -4.35860987881031        1.37216829641898
C           -9.87142276972658       -4.10366626832252       -1.11029265703330
C          -10.27936955054753       -2.17969963507248        0.40448367995013
C           -7.44294839622551       -1.77368579201366        0.11688544276014
C           -6.09021482943384       -1.42946564700879       -0.02725158857853
B           -5.48739188305274       -0.00969862967205        0.00223050820463
C           -6.11009948715946        1.40131680218086        0.03806554191921
C           -7.46906813637072        1.72652614170379       -0.09142752313593
C           -7.96753403657097        3.01853807314667       -0.01418761648884
C           -9.44859622321177        3.33783732497056       -0.13142979187723
C          -10.31510871488973        2.09245936903074       -0.33954026119547
C           -9.91443846505064        4.03205080982728        1.15678824847212
C           -9.66185444236962        4.27354012152452       -1.33056804334066
C           -7.05892961842323        4.06349625564482        0.18612104243580
C           -5.70416542145657        3.80529211427847        0.27780380398061
C           -5.22741442607159        2.50093070586251        0.19253568879441
O           -3.86895763124737        2.39397888854877        0.25597060451002
C            0.95471359259074       -0.33906082660034        1.13022158146299
C            0.24270880903807       -0.68923618716043        2.28427431900051
C            0.90393592825589       -1.06588083687947        3.43288060433843
C            2.28972140736712       -1.09964153508190        3.46393815312575
C            2.99982458888244       -0.74154567059458        2.33344324026418
C            2.35391516804138       -0.35921781892650        1.16826657486525
C            8.24772179162158        0.41713339909207       -1.12402944946087
C            9.63163273837071        0.40207515495237       -1.11057061923935
H           11.93627987463072       -1.88123663849686        1.26059447384804
H           11.95776741407630       -2.15527988923356       -0.48020538425661
H           13.40045021722182       -1.55172916804199        0.33906593965224
H           13.42204648720927        0.84953657407246        1.24963401507830
H           11.99367145142112        1.86691114992783        1.04597191653741
H           11.95823149996474        0.50751841530308        2.16700528343089
H           13.58839454765532        0.38106759233499       -1.13741439674019
H           12.23310743917021        1.45837475989601       -1.44825681311927
H           12.21948935274613       -0.19979799979440       -2.07685463648003
H           10.11197649600885       -0.77856635602916        2.00698540572353
H            7.67090701248099       -0.75248083409532        1.98605152560314
H            7.25035217337980        2.26507135484503        0.75807132033824
H            6.10028263715363        4.31306082822253        1.43957790850742
H            3.62515497989918        4.40702674578488        1.44598707153991
H            2.33643638887233        2.41858502689530        0.76629763543612
H            2.30552639231987       -2.32773800351820       -0.84178105872287
H            3.56827305890824       -4.33137954700239       -1.52434533711525
H            6.04448629027114       -4.27571331706951       -1.49969110592085
H            7.22092704278474       -2.24919137646845       -0.79956937515899
H            4.06321599532062        0.85110356297397       -2.39628002044815
H            2.77880114180291        1.49660127649136       -4.39988283151507
H            0.30407848749126        1.41478876051058       -4.33756831167035
H           -0.85122073151342        0.72042938134168       -2.29501079021639
H           -1.32519776037543        2.15542577962933        0.23502381685977
H           -1.29738144196289       -2.11689370791715       -0.26244227432668
H           -4.93375721210094       -4.62008778864584       -0.41261874010503
H           -7.32866997853996       -5.13033606864184       -0.23967663946466
H           -9.03237260063014       -5.28327368678444        1.23567777061944
H          -10.63885964973055       -4.60591168428264        1.49343136397861
H           -9.23470680724857       -3.88267536142463        2.28539208780810
H           -9.32245508267814       -5.02361009113625       -1.29047312237790
H           -9.72375276697404       -3.44599070840903       -1.96443061324582
H          -10.92991217317568       -4.34634990446738       -1.03914908879786
H          -10.00175815721592       -1.66461805805166        1.32120971725531
H          -10.20697796752023       -1.48740338497444       -0.43099459436855
H          -11.31919537559490       -2.48874355765511        0.49459281895718
H           -8.13064241882312       -0.96836807038073        0.29988462994980
H           -8.14757535093692        0.91163840610824       -0.26625966124611
H          -10.04413463410614        1.57617863232157       -1.25756256941192
H          -11.36021603856197        2.38704315799581       -0.41599755536978
H          -10.22107526896574        1.40577748494977        0.49841923840441
H           -9.74519831811242        3.38352986591353        2.01391067969594
H           -9.37795850179040        4.96197500883010        1.32265696176515
H          -10.97746592982839        4.25754764657052        1.09787710627349
H           -9.11655175630418        5.20509006925294       -1.20799280928201
H          -10.71891698402610        4.50839550385381       -1.43939674142829
H           -9.31753200624250        3.79494017517309       -2.24504675415675
H           -7.39756699909181        5.08503364395839        0.25887520381149
H           -4.99412670494057        4.60817214794173        0.40782697643333
H           -0.83527782721892       -0.65832353893253        2.26945414986247
H            0.33448168207440       -1.33321147530841        4.31021760693191
H            2.81002279574236       -1.39671039389072        4.36132981622039
H            4.08022979232219       -0.75473641625429        2.34790194013493
H            7.71490084280776        0.75262794172253       -2.00176120569281
H           10.15046364593641        0.73215358744590       -1.99516173014592
