121
 energy: -174.038085839832 gnorm: 0.000039984949 xtb: 6.7.1 (edcfbbe)
C           12.60320390045373        0.86595662008967        1.25717990438378
C           12.01022390252418        0.33989167767598       -0.05268063769314
C           12.40811448042672        1.30418673441794       -1.17919318699048
C           12.60367542854366       -1.05009258402635       -0.32233518069806
C           10.49431424583596        0.23114830640320       -0.00863290139176
C            9.80888239554698       -0.23382889026462       -1.12941005887750
C            8.43297671500739       -0.34756238471618       -1.13964264791596
C            7.69886840433802        0.00734873951858       -0.01595582913134
N            6.28032497968159       -0.10045135652317       -0.01841153983162
C            5.69182660421823       -1.24198331296540        0.50092285456069
C            6.48504856045937       -2.28276717175234        0.99131448432547
C            5.90919467419456       -3.42397060299378        1.51122164955334
C            4.53183696091835       -3.55558221670383        1.55186193045076
C            3.74256856373010       -2.53162096700222        1.06229528847885
C            4.30185624319211       -1.37794696253601        0.53640552486113
C            3.37198298478175       -0.30024238543632        0.01907574990648
C            4.13332950484405        0.87684030232393       -0.55819895395531
C            3.41035169000533        1.92875369769244       -1.09787115165095
C            4.04065656911958        3.04067257103550       -1.62449539542077
C            5.42318700542608        3.10404900848148       -1.60599075629551
C            6.16075933951392        2.06652689996046       -1.07352080389074
C            5.52906854596867        0.93645493927336       -0.54726893919840
C            2.53822805730197        0.20672971383457        1.17805921988876
C            3.19443419295938        0.70755922282924        2.29148417181427
C            2.49629933105543        1.18501140211314        3.38461095255228
C            1.11267662124351        1.15115695869271        3.36757328181468
C            0.44154127591858        0.65579414054894        2.26835677275313
C            1.14197069677055        0.18837029112739        1.15322194664115
N            0.45652426213730       -0.30637632756514        0.05343218930073
C           -0.96159656383751       -0.24216728831066        0.04433843210379
C           -1.58278300458540        0.97120128164400       -0.21776672812508
C           -2.97129744988137        1.03766157391650       -0.21456275786329
C           -3.75483032175412       -0.10096851043332        0.02838536133350
C           -3.09283805241977       -1.31256741327779        0.28109608952025
C           -1.70468803685564       -1.38672589293535        0.29987730435094
O           -3.77638389756917       -2.45029818458283        0.52805030349267
C           -5.13543119817827       -2.50521582203573        0.43541075735233
C           -5.67996133949700       -3.77391880181870        0.62758797944157
C           -7.03782664769729       -3.97677047236041        0.52575467243089
C           -7.89607606347820       -2.92269814321916        0.21130809737272
C           -9.39938320637639       -3.09733648897164        0.05346806706584
C           -9.85456799455213       -4.53660041301179        0.30866342891737
C           -9.79860781483080       -2.71546641856982       -1.37900552336675
C          -10.12135667676840       -2.18408634924477        1.05467245484240
C           -7.33300733056367       -1.67008322978654        0.03653828025011
C           -5.96518577166564       -1.40269483100900        0.16074402830092
B           -5.27781921058379       -0.02338935256296        0.01959658196894
C           -5.81973833683987        1.41855446162634       -0.12501872450139
C           -7.15942747616477        1.81839643695616       -0.01273794050175
C           -7.58794451994021        3.11987495118596       -0.18312522988804
C           -9.04539264577973        3.53753267479612       -0.05994169542428
C           -9.97496502430810        2.35984736992829        0.24755265931793
C           -9.17552538907382        4.56022656382320        1.07742067542874
C           -9.49943056502199        4.16980246555620       -1.38320413400761
C           -6.61984616931864        4.08518130802093       -0.47972585384709
C           -5.29056082439464        3.75194621428757       -0.57134273470136
C           -4.88029088157993        2.43085340073309       -0.38375146640530
O           -3.53363388791730        2.23926952254534       -0.46448698074291
C            1.11747478429186       -0.85486888121772       -1.03596510722668
C            0.39599164341740       -1.36438439472336       -2.11865083456531
C            1.04563718294988       -1.91878645341736       -3.20261395436650
C            2.42826615678057       -1.97299533338051       -3.23630898559490
C            3.14753086505131       -1.45150817692395       -2.17754174023300
C            2.51329997203972       -0.89002470708450       -1.08044267554020
C            8.36386919590261        0.47066057072751        1.10845452325329
C            9.74370936543203        0.57855759184845        1.10827982685709
H           12.23377140505821        1.86383240990027        1.48199499946079
H           12.37065461695991        0.20279100728820        2.08718879152357
H           13.68606298586829        0.92227935213634        1.16673738847700
H           11.97079776677867        2.28541184022393       -1.00616858992303
H           13.49014929231336        1.41043661392227       -1.21564069137675
H           12.06918291289432        0.94620619973472       -2.14729886133855
H           13.69002476142211       -0.99567688800366       -0.33992702356116
H           12.26812927210032       -1.44765676468588       -1.27604834456021
H           12.30571233511514       -1.74455368298555        0.46053689479171
H           10.35289461733115       -0.51593930940277       -2.01796127796898
H            7.91877912780974       -0.70841011443952       -2.01844031067992
H            7.56049343968225       -2.19259380613970        0.96094330879954
H            6.54306641468898       -4.21454620968939        1.88527645173373
H            4.07782723644636       -4.44618725435197        1.95848991203436
H            2.66576776274328       -2.62094733718714        1.08485006910480
H            2.33150918095679        1.86897766471403       -1.10191054069340
H            3.46000820841371        3.84942452095691       -2.04099084180126
H            5.93438635944472        3.96665183317839       -2.00761085800188
H            7.23847456175863        2.12870416958615       -1.06132521432908
H            4.27494079154375        0.72004124445838        2.29425011712405
H            3.02504452063033        1.57397183858778        4.24126532658962
H            0.54851905303614        1.50962975242998        4.21596812057821
H           -0.63728122202544        0.62558264528098        2.27168601139107
H           -0.99968076904576        1.85767660076472       -0.40962183917041
H           -1.21598394786236       -2.32641832197389        0.50191042765249
H           -5.01196133639164       -4.59258272723164        0.84820415732401
H           -7.41837708394471       -4.97256402989487        0.68228180395834
H           -9.39577496222429       -5.22406493477515       -0.39814790662973
H          -10.93392321926764       -4.60231152545527        0.18675569303541
H           -9.61180034550409       -4.84996567691754        1.32143492476357
H           -9.54621596259878       -1.68184620253870       -1.59926577846919
H          -10.87061038618775       -2.84144686347090       -1.51568932772019
H           -9.28209028417144       -3.35110143473094       -2.09521069658526
H           -9.81447562976566       -2.42305468625863        2.07080543977425
H           -9.90063015541389       -1.13671696757649        0.86952095616439
H          -11.19789128883378       -2.32150535404149        0.97795007672525
H           -7.97441378324906       -0.84622239515408       -0.22820269686404
H           -7.87440629016828        1.05629494386664        0.23977447792093
H           -9.93795833808773        1.61567496053222       -0.54508790436934
H          -10.99985094148020        2.71793505574745        0.32182919409764
H           -9.71543918405097        1.89132367274679        1.19429576633160
H           -8.83957292777754        4.12349225789275        2.01567510551851
H           -8.57933663077956        5.44728322896291        0.88239060921134
H          -10.21362087834656        4.86564555549594        1.19059578092065
H           -8.91962471780219        5.05755691245262       -1.61929306705602
H          -10.54742721057378        4.45553477082059       -1.32153014675849
H           -9.38257886215546        3.45953205868930       -2.19921686618373
H           -6.90495623314136        5.11549581623214       -0.62804333644175
H           -4.54031093085550        4.49966940730644       -0.77869247007043
H           -0.68219925904727       -1.32020004017514       -2.10997014612136
H            0.46504933344313       -2.30808582771691       -4.02598358471521
H            2.93999855391805       -2.40796367043553       -4.08106254495962
H            4.22786356287343       -1.47353781948231       -2.19557183185270
H            7.79631082855294        0.74587601711105        1.98546364402167
H           10.22366687840010        0.94313260145738        2.00142385415175
