  90
       -140.35867594
 C          9.6498688227       -4.5191597591       -1.5177620658
 C          8.9267490529       -5.0560407625       -0.4648202826
 C          7.7251333984       -4.4900187904       -0.0853290813
 C          7.2254992081       -3.3679928209       -0.7478929458
 C          5.9536645983       -2.7620488868       -0.3433058695
 C          4.8722947703       -3.5765875765        0.0366880931
 C          3.6563867212       -3.0467909047        0.4156146483
 C          3.5213850918       -1.6659031315        0.4328753825
 C          4.5998080493       -0.8238381064        0.0531631638
 C          5.8076781679       -1.3759406802       -0.3335868173
 C          4.1318629873        0.5250492809        0.1908399007
 C          4.7270607459        1.7580469708       -0.0038542409
 C          4.0070426801        2.9192126907        0.2692229078
 C          4.6108824165        4.2371953092        0.0608097889
 C          5.9582439925        4.4615596941        0.3487739618
 C          6.5234920794        5.7068183087        0.1555631642
 C          5.7583815476        6.7528181647       -0.3350591249
 C          4.4205379508        6.5429805305       -0.6284655611
 C          3.8509464834        5.3005665026       -0.4298507779
 C          2.6976671598        2.8144982684        0.7730970214
 C          2.0885698254        1.5941057192        0.9751473271
 C          2.7886316404        0.4399912126        0.6504433080
 N          2.4262369896       -0.8892541274        0.7644387403
 C          1.1823576484       -1.3823957203        1.1064501584
 C         -0.0012009048       -0.7666932252        0.7121641005
 C         -1.1991533637       -1.3560925544        1.1062950127
 N         -2.4344128761       -0.8492871933        0.7565180850
 C         -3.5510338822       -1.6174220260        0.4760346660
 C         -3.7210104542       -2.9935802228        0.5344410637
 C         -4.9548696698       -3.5127401646        0.2020522268
 C         -6.0225488857       -2.6938162101       -0.2072564589
 C         -7.3154506184       -3.2880559536       -0.5571662856
 C         -7.8271524123       -4.3647884371        0.1688635907
 C         -9.0492719621       -4.9191722605       -0.1584152775
 C         -9.7823399842       -4.4160904169       -1.2211438739
 C         -9.2845202987       -3.3493780125       -1.9521283761
 C         -8.0660519747       -2.7884782459       -1.6226974578
 C         -5.8410696361       -1.3136005156       -0.2771445139
 C         -4.6145664273       -0.7720013900        0.0625455861
 C         -4.1146143869        0.5705457341        0.1204765115
 C         -4.6841024751        1.8022406792       -0.1450502521
 C         -3.9366390234        2.9615727478        0.0508767493
 C         -4.5094071245        4.2767005736       -0.2431166204
 C         -3.7253416981        5.2857001958       -0.8056882005
 C         -4.2656479787        6.5246366843       -1.0893200595
 C         -5.5977437203        6.7857905360       -0.8111842688
 C         -6.3865020612        5.7943851560       -0.2496452218
 C         -5.8506406765        4.5523504106        0.0288930610
 C         -2.6275867396        2.8571765607        0.5557277098
 C         -2.0443632722        1.6377912780        0.8281950984
 C         -2.7691305215        0.4807700312        0.5743612133
 N         -1.1895148994       -2.5369745695        1.8107146190
 C         -0.0242869630       -3.0694698917        2.0762185443
 N          1.1527641127       -2.5670587370        1.8026000840
 C          7.9658119466       -2.8345611023       -1.8038750583
 C          9.1633747964       -3.4071272228       -2.1860744717
 H         10.5871346651       -4.9650133737       -1.8160876471
 H          9.3039511287       -5.9194890894        0.0638180277
 H          7.1775693516       -4.9021574055        0.7494760980
 H          4.9904736173       -4.6487368950        0.0002065936
 H          2.8321161174       -3.6805713138        0.7012316530
 H          6.6372957286       -0.7376424162       -0.5979745484
 H          5.7371022351        1.8174420803       -0.3800423287
 H          6.5569507766        3.6585238595        0.7531551342
 H          7.5657076205        5.8655762245        0.3921228979
 H          6.2018111797        7.7256441046       -0.4870667371
 H          3.8199762928        7.3530576424       -1.0164889821
 H          2.8127609780        5.1403664852       -0.6817019386
 H          2.1696396971        3.7160795565        1.0437664678
 H          1.1042704238        1.5471062688        1.4128417398
 H          0.0111190407        0.0785423171        0.0441056797
 H         -2.9083946785       -3.6318047813        0.8424534678
 H         -5.0985982880       -4.5820736672        0.2263300900
 H         -7.2721079313       -4.7494023022        1.0117845809
 H         -9.4347742044       -5.7469192497        0.4191510009
 H        -10.7360367346       -4.8527588231       -1.4781038491
 H         -9.8490739235       -2.9560638908       -2.7852144264
 H         -7.6756203211       -1.9711387117       -2.2114231824
 H         -6.6582038179       -0.6691019275       -0.5643617167
 H         -5.6947894124        1.8608112413       -0.5196537512
 H         -2.6913531237        5.0843351048       -1.0451001046
 H         -3.6465716762        7.2916463206       -1.5320014577
 H         -6.0184150376        7.7559938118       -1.0299383848
 H         -7.4241356319        5.9939014655       -0.0240213015
 H         -6.4678557566        3.7931967992        0.4867427730
 H         -2.0779868215        3.7609087460        0.7703930567
 H         -1.0591031840        1.5995640624        1.2635890807
 H         -0.0346299841       -4.0157128127        2.6030567875
 H          7.5831772849       -1.9805078411       -2.3435985854
 H          9.7198452190       -2.9877382930       -3.0118613785
