  57
        -90.53683038
 C         -5.6458827921       -2.3898363262        0.2477387177
 C         -5.7174656406       -1.0078958610        0.1674041487
 C         -4.5558867116       -0.2637790484        0.0938071763
 C         -3.3104789185       -0.8782767840        0.1004987762
 C         -3.2477527434       -2.2654887049        0.1824442258
 C         -4.4174262730       -3.0177128975        0.2560668226
 O         -2.0764567748       -2.9672832813        0.1979962842
 C         -0.8986825406       -2.2827107530        0.1871135020
 C          0.2666391257       -3.0456898793        0.2564843635
 C          1.4974390967       -2.4318179666        0.2652682857
 C          1.5983166754       -1.0398412160        0.2133658947
 C          2.9233265562       -0.4105674820        0.2476175447
 C          3.0947659520        0.9150277288        0.7225064777
 C          4.3462904165        1.4586016591        0.7442038506
 C          5.4452745405        0.6962126889        0.2941103526
 C          6.7690732476        1.1731935776        0.2745982314
 C          7.7858889069        0.3709148062       -0.1648860799
 C          7.5216460020       -0.9376982476       -0.6007737163
 C          6.2472373080       -1.4314962062       -0.5942343044
 C          5.1757725587       -0.6283869190       -0.1480729946
 N          3.9350378830       -1.1438567628       -0.1571067369
 C          0.4302234403       -0.2917201378        0.1239067649
 C         -0.8169876439       -0.8959292000        0.1104948132
 C         -2.0577900695       -0.0414100373        0.0028073950
 C         -2.0471024674        1.0611990499        1.0422645486
 C         -2.0479517589        0.9386902289        2.4140441046
 C         -2.0293409261        2.0958057111        3.1817581784
 C         -2.0091671446        3.3455113887        2.5811860848
 C         -2.0075642762        3.4726145583        1.2009226248
 C         -2.0267298720        2.3222891919        0.4297808315
 C         -2.0288913423        2.1354367047       -1.0135163327
 C         -2.0178196542        3.0516217868       -2.0519565868
 C         -2.0263487790        2.5773165941       -3.3540792724
 C         -2.0442542708        1.2159331698       -3.6165422592
 C         -2.0546723530        0.2922821937       -2.5798269651
 C         -2.0474034786        0.7603369935       -1.2848573847
 H         -6.5486122155       -2.9789100483        0.3043957463
 H         -6.6760947755       -0.5123454414        0.1611306638
 H         -4.6037218199        0.8135663058        0.0286218647
 H         -4.3333944202       -4.0913477688        0.3185529964
 H          0.1731600604       -4.1192837302        0.3058253642
 H          2.4042647231       -3.0124310935        0.3177500946
 H          2.2452739568        1.4722781206        1.0858663471
 H          4.5127711861        2.4641490672        1.1075465845
 H          6.9644669997        2.1815353596        0.6125263288
 H          8.8014502952        0.7387376946       -0.1799383199
 H          8.3410635675       -1.5532288382       -0.9430538020
 H          6.0249550873       -2.4335030097       -0.9265409093
 H          0.4739804609        0.7839319988        0.0382755575
 H         -2.0628261455       -0.0349264858        2.8824008913
 H         -2.0304471043        2.0211480791        4.2592400392
 H         -1.9946303627        4.2320136458        3.1985408203
 H         -1.9917214943        4.4482070735        0.7378305080
 H         -2.0039265230        4.1130167164       -1.8527369222
 H         -2.0189727490        3.2774546132       -4.1767780171
 H         -2.0502546929        0.8695510783       -4.6393684899
 H         -2.0685478586       -0.7683989441       -2.7852499509
