57
 energy: -90.454700262546 gnorm: 0.000079697912 xtb: 6.7.1 (edcfbbe)
C           -5.56355298111267       -2.57758181584367        0.12761027468375
C           -5.69513212857185       -1.19568278137376        0.12573200536127
C           -4.56764624589958       -0.39753744636025        0.09173374037624
C           -3.29642858278889       -0.95463705877659        0.06036410534268
C           -3.17248935182955       -2.34416400803350        0.06354216452603
C           -4.31107661920832       -3.15096930433652        0.09691038422906
O           -1.97776363011195       -2.98764685553297        0.03629613674320
C           -0.82797735956601       -2.25749705976486        0.02476574148417
C            0.37466590809544       -2.97578238802884        0.01892024480412
C            1.57235836284552       -2.31758270740989        0.01185998736408
C            1.63301894792230       -0.90182127445639        0.01096858416622
C            2.90849226394224       -0.26581675466803        0.00832467478101
C            3.12734068952879        1.12769284189820        0.01482845628561
C            4.39399257832106        1.63761291442771        0.01430178093021
C            5.53276896423642        0.77791472130390        0.00689291249424
C            6.85262487909535        1.20531171504535        0.00637374448775
C            7.90685297195557        0.29805338186077       -0.00115699626144
C            7.64548844072591       -1.06198647832707       -0.00840579007677
C            6.34379865632133       -1.52818586594675       -0.00793401528495
C            5.26205874810423       -0.63227503380802       -0.00008698364783
N            4.01178011793744       -1.05411509791781        0.00138709747020
C            0.41191773850517       -0.20315671878495        0.01306519862706
C           -0.80020050222112       -0.85798731728241        0.02021533173287
C           -2.08258173400068       -0.06117813955740        0.01473249232021
C           -2.10004231699358        0.94228836334660        1.15193556128634
C           -2.07163048918199        0.69398271345461        2.50601494165577
C           -2.09027504058467        1.77553656848635        3.37687851695645
C           -2.13554810591105        3.07455307313742        2.89435120808951
C           -2.16424923748125        3.32768580717746        1.53204666636337
C           -2.14692930788882        2.25342972360008        0.65809440764652
C           -2.16954503146208        2.19983708818540       -0.79600787349259
C           -2.21720430038029        3.20660938751000       -1.74584913961034
C           -2.23065257879021        2.85367144709981       -3.08598337255902
C           -2.19663217006325        1.52265857034080       -3.47266090176568
C           -2.14818877845677        0.50834727453602       -2.52543908935818
C           -2.13531451747546        0.85608076247175       -1.19323979730386
H           -6.44044619512790       -3.20637719183735        0.15333398127022
H           -6.67467013811305       -0.74368265334827        0.15007589357408
H           -4.66406571588338        0.67846521727760        0.08885320222221
H           -4.17955413673092       -4.22165381172050        0.09805969292018
H            0.32450405456878       -4.05360307342239        0.02103757762337
H            2.50317597588437       -2.86395616398522        0.00792247546012
H            2.27155394499113        1.78411309011455        0.02127282551095
H            4.55707132597738        2.70500203589016        0.01979773850039
H            7.05343672540535        2.26729240730444        0.01209128081816
H            8.92456987250027        0.65729747406890       -0.00133407489392
H            8.46249372397141       -1.76827568311446       -0.01442636765768
H            6.13188300276133       -2.58593386949190       -0.01357691923603
H            0.40503855511937        0.87596883556897        0.00856970449224
H           -2.03504103337650       -0.31790920463872        2.88285364529569
H           -2.06869779329374        1.60223150922838        4.44258087165232
H           -2.14854776740440        3.90036777641080        3.59065547607591
H           -2.19947751345758        4.34127317978611        1.16098572686222
H           -2.24382265117702        4.24481271456816       -1.44969627340717
H           -2.26814545586165        3.62582525143825       -3.84052914832286
H           -2.20772739757310        1.27116542876314       -4.52282967805712
H           -2.12089302342440       -0.52855912369588       -2.82781296570574
