57
 energy: -90.454703966820 gnorm: 0.000049518216 xtb: 6.7.1 (edcfbbe)
C           -5.60517426469077       -2.47324198860361        0.23365498970013
C           -5.71420886597349       -1.09371412512648        0.12411800365324
C           -4.57346538841864       -0.31719730486842        0.05246843621542
C           -3.31108391245140       -0.89376911458822        0.08874371985546
C           -3.20984836081313       -2.28073913628143        0.19941655442449
C           -4.36182588707740       -3.06573423544284        0.27135630850166
O           -2.02552173373569       -2.94220959676048        0.24391759725748
C           -0.86396097828889       -2.23302947646421        0.18990184202011
C            0.32688136924073       -2.96816593455341        0.25204819771227
C            1.53516033108836       -2.33118753251080        0.20651222188286
C            1.61883968859925       -0.92088220209278        0.09636563969779
C            2.90421492487318       -0.30656409392390        0.05543488920564
C            3.14459955874875        1.07948044855829       -0.04898948755440
C            4.41893009814784        1.56878314738787       -0.08062719903775
C            5.54421791258121        0.69442081866473       -0.00878706776107
C            6.87047716481521        1.10075890709827       -0.03322354097733
C            7.91057125913013        0.18038269341088        0.04218627845515
C            7.62823996026883       -1.17163885892281        0.14420017823071
C            6.31952550764252       -1.61688340926349        0.17188535589193
C            5.25171410729080       -0.70740706058433        0.09717227727615
N            3.99508198870044       -1.10924922453870        0.12255988505297
C            0.40925810887213       -0.20522501662948        0.03352292580166
C           -0.81334689136242       -0.83857310361819        0.07886549426009
C           -2.08226768901951       -0.02393350042657        0.00431613262108
C           -2.09849743884188        1.04679443912041        1.07882618361048
C           -2.09159298647315        0.88059623005123        2.44568572281677
C           -2.10417572558246        2.01311323184901        3.24927312820945
C           -2.12257529849184        3.28104796037819        2.68863822132625
C           -2.12944476677105        3.45153150616435        1.31327889111210
C           -2.11775008074935        2.32613713224565        0.50616533380593
C           -2.12132918026317        2.18498697884115       -0.94219636064508
C           -2.13888563729140        3.13325785289017       -1.95141580460942
C           -2.13883369564529        2.70035012110987       -3.26795423859115
C           -2.12109157818949        1.34803658519117       -3.57326547769539
C           -2.10291861528803        0.39207966706709       -2.56615709812756
C           -2.10345556546527        0.81925041803137       -1.25718001114878
H           -6.49250864398031       -3.08519482783202        0.28969756198520
H           -6.68655571127001       -0.62675637163291        0.09451952389340
H           -4.65232484612306        0.75680161424457       -0.03348260570746
H           -4.24768937467285       -4.13504849045086        0.35625235856799
H            0.25911752239110       -4.04169820908860        0.33667846429310
H            2.45694439220062       -2.89063808852464        0.25436984028173
H            2.29911722232145        1.74692782561626       -0.10349891697032
H            4.59846565478931        2.63049288548767       -0.16099231586821
H            7.08759721891169        2.15656065786320       -0.11246547097451
H            8.93369087530542        0.52325175181301        0.02101394188817
H            8.43427874839664       -1.88802577902443        0.20294674516531
H            6.09129166401006       -2.66827778214663        0.25079849536669
H            0.41986479344341        0.87040189865165       -0.05289499243618
H           -2.07592321515524       -0.10697122169455        2.88357728430296
H           -2.09895220009298        1.90438564934430        4.32368971804406
H           -2.13150893973326        4.14763926942840        3.33355619616621
H           -2.14368426364086        4.44114985529772        0.88113952699016
H           -2.15266157087266        4.18770700242673       -1.71853008466778
H           -2.15270372536240        3.42604572525565       -4.06804729385343
H           -2.12101901940233        1.03382901839895       -4.60646205190769
H           -2.08809556860536       -0.66145681705483       -2.80524890012463
