57
 energy: -90.536336141289 gnorm: 0.000034601805 xtb: 6.7.1 (edcfbbe)
C           -5.99622731499145       -1.49611945922153       -0.58231580708016
C           -5.74547242028537       -0.14703560163865       -0.38641436424246
C           -4.44712077148666        0.29176232490845       -0.21233158027992
C           -3.38139901131968       -0.59867854419205       -0.23143365702826
C           -3.64259162948521       -1.95051278406374       -0.42981988869629
C           -4.95031650124665       -2.39564429657729       -0.60485819429847
O           -2.66932124627359       -2.90847273242789       -0.46776875450919
C           -1.36676201284106       -2.52653995854114       -0.35520196936423
C           -0.41260902806213       -3.53623559663905       -0.46180073672750
C            0.92939230804569       -3.24259924216411       -0.35962920866267
C            1.35063831963062       -1.92895293828620       -0.15279305763290
C            2.76706205782063       -1.55934385364063       -0.05211132243865
C            3.75208134290648       -2.49534320327398        0.35364652141088
C            5.05710953046075       -2.10208108301140        0.42533039775221
C            5.40443696166624       -0.77490964498638        0.09478135373681
C            6.72169053883931       -0.28089748479546        0.12984752015971
C            6.97899479282959        1.02232505246289       -0.19536879309499
C            5.93305506074899        1.88334452077970       -0.56602266197062
C            4.64267327051858        1.43540023866145       -0.60994849581203
C            4.34464508592615        0.09509528330177       -0.28287744929263
N            3.06717028873494       -0.31424481464665       -0.34391948762331
C            0.38724913471886       -0.92854629435298       -0.05873502968623
C           -0.96441251702708       -1.20879684840377       -0.15268432349110
C           -1.97428575753622       -0.09348894463795       -0.02221354354212
C           -1.84224118076164        0.58715724176745        1.32698731374301
C           -2.03151573422550        0.04297748161922        2.57754818384910
C           -1.85440382875082        0.85855359633623        3.68739681156280
C           -1.49474679197372        2.18928431082368        3.53927783971487
C           -1.30356231919140        2.73981989690040        2.28190768948621
C           -1.47928824640426        1.93189360747331        1.17103148773719
C           -1.35845439169132        2.21658423163524       -0.25080364124155
C           -1.02934920889248        3.38175471827040       -0.92289011007735
C           -0.99521215127586        3.36066253975273       -2.30813120804714
C           -1.28359078399210        2.20056285462075       -3.01041494611480
C           -1.61348323725249        1.02885914154661       -2.34230416824700
C           -1.64845199638193        1.04637213650427       -0.96594092290429
H           -7.00773845197236       -1.84767312310315       -0.71819415276620
H           -6.56039826935219        0.56026625848452       -0.36835198279522
H           -4.24400062907640        1.34138818784245       -0.05717227154419
H           -5.11722279909831       -3.45062554321528       -0.75635532537891
H           -0.75270359550536       -4.54624443397274       -0.63011727964329
H            1.64856426030761       -4.03957653354965       -0.46957116560395
H            3.46443031744617       -3.49897341017985        0.62483860715489
H            5.83198302695295       -2.79003829774333        0.73693496994777
H            7.52181562887743       -0.94926431112767        0.41681940705014
H            7.99084117021948        1.39970954320045       -0.16935436029397
H            6.16109169035302        2.90884668870117       -0.81821590560398
H            3.82536258327052        2.07987635083013       -0.89386667957905
H            0.71576495407219        0.08793585835137        0.09266130022300
H           -2.31219197827185       -0.99409148160354        2.69396838698429
H           -1.99862424626025        0.45130025709371        4.67730660604633
H           -1.36227005037540        2.80493187631298        4.41715583124200
H           -1.02364819893879        3.77705260520735        2.17239280698316
H           -0.80379304306275        4.28789369217857       -0.38034111045032
H           -0.74055238075968        4.26039737127854       -2.84935141267209
H           -1.25073339876470        2.20796369855580       -4.08991758860592
H           -1.83736020156026        0.12495689462071       -2.89028847773120
