57
 energy: -90.536848862056 gnorm: 0.000034338902 xtb: 6.7.1 (edcfbbe)
C           -5.64309390939163       -2.39944051514544        0.23994974084544
C           -5.71874727381201       -1.01793022998679        0.15583434360405
C           -4.55930040969882       -0.27008655551732        0.08575921724258
C           -3.31178930432674       -0.88030272169638        0.09994521822103
C           -3.24516418256755       -2.26710532011498        0.18624307971636
C           -4.41259275107178       -3.02313727774197        0.25579454488177
O           -2.07186807854693       -2.96514819919394        0.20981899900340
C           -0.89621428397860       -2.27715992125285        0.19927613790581
C            0.27085189083357       -3.03698435853142        0.27357450582027
C            1.49985846820086       -2.41996715563531        0.27967460529207
C            1.59789537779726       -1.02784975323274        0.21954798328135
C            2.92341927511929       -0.39927165342347        0.24423301308427
C            3.09921545554943        0.93680120499170        0.68662912708667
C            4.35292235110250        1.47592972662637        0.69762437627702
C            5.45024751022191        0.69866097280707        0.26964361839979
C            6.77615708515386        1.16928765716328        0.24168852957652
C            7.79040121758231        0.35204211601734       -0.17515815576802
C            7.52176653515598       -0.96595133055224       -0.57916522501376
C            6.24522627860310       -1.45377958798492       -0.56414803218580
C            5.17632992219075       -0.63514591169962       -0.14074304557419
N            3.93373508977654       -1.14533010635639       -0.14057668044835
C            0.42786900916047       -0.28291520851480        0.12823459479208
C           -0.81791678564158       -0.89046057211074        0.11782300109481
C           -2.06120572206824       -0.03967146948339        0.00683785024595
C           -2.05707810416405        1.06193287233061        1.04747811300391
C           -2.06225862889686        0.93803603726396        2.41903916275114
C           -2.04774764418007        2.09438206005895        3.18793882527052
C           -2.02782060811038        3.34468901903165        2.58877402687103
C           -2.02206313317628        3.47319498726979        1.20877612318840
C           -2.03672538622081        2.32365568290792        0.43638077116965
C           -2.03214356980846        2.13829573242515       -1.00710281765636
C           -2.01589682596479        3.05554854018363       -2.04455395993769
C           -2.01465210545403        2.58260248845945       -3.34718613360049
C           -2.02876434497910        1.22150572481218       -3.61114804525411
C           -2.04499809971118        0.29675894543394       -2.57542121365648
C           -2.04705170690985        0.76343997596811       -1.27992358557470
H           -6.54410639121172       -2.99141180719663        0.29381571084715
H           -6.67904629398447       -0.52564807543927        0.14372172924868
H           -4.61057097334784        0.80691542259657        0.01773396924656
H           -4.32509880307686       -4.09631899558828        0.32139773931172
H            0.17995731408347       -4.11057960886673        0.32781627684581
H            2.40823781690017       -2.99781267178705        0.33527760509742
H            2.25164886185596        1.50697974401648        1.03371902413321
H            4.52228809871628        2.48960139986023        1.03605654945020
H            6.97534933490582        2.18494449192768        0.55483340022668
H            8.80762612056066        0.71494759614793       -0.19651513807567
H            8.33923536091997       -1.59313452727989       -0.90410173798814
H            6.01906998392765       -2.46258408643531       -0.87228114412979
H            0.46819561905621        0.79253220463198        0.03876985852973
H           -2.07685029779699       -0.03609941147629        2.88628465869208
H           -2.05167767423718        2.01870238825157        4.26528526394696
H           -2.01656140996767        4.23057825629017        3.20705415954051
H           -2.00615602591639        4.44927119192362        0.74681870546482
H           -2.00475866588653        4.11674288567442       -1.84421734258424
H           -2.00225997559343        3.28360297667208       -4.16909769724168
H           -2.02674030678949        0.87616821335112       -4.63439598133779
H           -2.05542934784152       -0.76372673109819       -2.78201326837027
