  69
       -100.97529569
 C         -6.5153178389       -4.4370604531        0.6337121755
 C         -5.5546478687       -3.3040360019        0.4619978640
 C         -5.6557585012       -2.4463587149       -0.6286828753
 C         -4.7756819782       -1.3949685709       -0.8048660816
 C         -4.9059063438       -0.5194426268       -2.0123641792
 C         -3.7603331741       -1.1467279637        0.1429887392
 B         -2.8125842972        0.0942564709       -0.0048479706
 C         -1.2949666539       -0.1325414454       -0.0590703914
 C         -0.7525792937       -1.4024628179       -0.3633227095
 C          0.5957752619       -1.6139867477       -0.4106744825
 C          1.5022057053       -0.5655808571       -0.1418176864
 C          2.8981253884       -0.7889353651       -0.1815722644
 N          3.3711987064       -2.0422112364       -0.4849956969
 C          4.6610690227       -2.1689019370       -0.5065575254
 Cl         5.2714903619       -3.7321796047       -0.8889633718
 N          5.5667167751       -1.2444376124       -0.2692216319
 C          5.0511353083       -0.0208775611        0.0335590375
 C          5.9843246321        1.0549660303        0.3180351767
 C          7.3596750167        0.8188698630        0.2731121837
 C          8.2459116608        1.8409888217        0.5476225939
 C          7.7748405378        3.1052089940        0.8688795596
 C          6.4091657481        3.3459336763        0.9139291466
 C          5.5157254016        2.3306098177        0.6408527396
 N          3.7633275390        0.2030469652        0.0742773416
 C          0.9729180832        0.7068607972        0.1662010945
 C         -0.3772354063        0.9118624535        0.1962581333
 C         -3.3661130667        1.5601861135       -0.1004452548
 C         -3.0856699257        2.3769059337       -1.2122960282
 C         -2.1803457657        1.9178292610       -2.3162372635
 C         -3.6668596306        3.6305074307       -1.3205076042
 C         -4.5057942765        4.1322521266       -0.3349900139
 C         -5.1224092297        5.4898842941       -0.4525649014
 C         -4.7621482355        3.3360262123        0.7770034040
 C         -4.1989229775        2.0809486269        0.9121645959
 C         -4.4795190879        1.2750052551        2.1423060210
 C         -3.6465482552       -2.0282720561        1.2362495986
 C         -2.5747049647       -1.8581502113        2.2715110283
 C         -4.5444385715       -3.0721368777        1.3866075857
 H         -6.0996493789       -5.2072841852        1.2788591578
 H         -7.4375339462       -4.0735639373        1.0895976329
 H         -6.7712757873       -4.8773251629       -0.3277963029
 H         -6.4347916070       -2.6145064012       -1.3593678620
 H         -5.7663275499       -0.8086853326       -2.6115757343
 H         -5.0135932068        0.5217170306       -1.7139983367
 H         -4.0122448743       -0.5924516502       -2.6307201943
 H         -1.4282590726       -2.2169718189       -0.5809735237
 H          1.0009915932       -2.5841764888       -0.6545710939
 H          7.7054635139       -0.1713439937        0.0215331165
 H          9.3092481421        1.6549739890        0.5120355673
 H          8.4707746485        3.9025704398        1.0839706596
 H          6.0437671154        4.3311686955        1.1644315921
 H          4.4506964819        2.5010723091        0.6731171696
 H          1.6626060200        1.5103062023        0.3767261719
 H         -0.7612157106        1.8918087315        0.4416995313
 H         -2.1175458986        0.8349544674       -2.3495260569
 H         -1.1726813421        2.3008461888       -2.1536166941
 H         -2.5297657134        2.2921068170       -3.2770144796
 H         -3.4539829790        4.2339443926       -2.1920657436
 H         -4.9920597843        6.0519119730        0.4708426627
 H         -6.1937139798        5.3974992240       -0.6343472679
 H         -4.6814780231        6.0507531352       -1.2727255325
 H         -5.4103998437        3.7138583796        1.5555940108
 H         -4.8896444907        0.3040339813        1.8713964476
 H         -5.1832628169        1.7890865669        2.7922928328
 H         -3.5590978881        1.0996498094        2.6971068485
 H         -2.9400129821       -2.1581127602        3.2523341641
 H         -1.7184258809       -2.4867141379        2.0253461317
 H         -2.2249504655       -0.8314578090        2.3117566955
 H         -4.4512135241       -3.7266342178        2.2422810207
