114
 energy: -158.234389950773 gnorm: 0.000084466157 xtb: 6.7.1 (edcfbbe)
C           10.15569608702083        4.65817933336845        1.64890015190537
C           10.26032818478389        3.89281798713655        0.32192727353705
C           10.13599828889497        4.87126786239420       -0.85458792478056
C           11.64588143574724        3.24440636458625        0.25621529509172
C            9.13347482320470        2.87359595138509        0.24737359084054
C            7.80815787693043        3.32569836001342        0.29937193990883
C            6.72254070140546        2.47491811263877        0.25295242685197
C            6.96692668390945        1.11279385613267        0.16213860406235
C            8.29117451947123        0.63375663096755        0.07394596955314
C            9.36415579920637        1.51192073440028        0.12193221042409
C            8.19887684344401       -0.79493149632281       -0.06558787028188
C            9.15187050926710       -1.79689181200333       -0.18005659863155
C            8.74981402294599       -3.12024378119292       -0.27857372336128
C            9.73714563997996       -4.26914171554303       -0.41831798955186
C           11.19201735036937       -3.79344093047354       -0.45899320415196
C            9.44734069271058       -5.02429858992380       -1.72337560712744
C            9.57920390785523       -5.21803305454646        0.77823961255818
C            7.37894884011528       -3.40767895704616       -0.23708112205836
C            6.41016424753629       -2.43138326878174       -0.12359039066067
C            6.82361170731499       -1.10939388324098       -0.05773183170911
N            6.08640475641986        0.05122721727599        0.08324675805482
C            4.69433085172532        0.13844355646347        0.13480281882106
C            3.91246834454556       -0.53397364072644       -0.80440811166674
C            2.53757352851904       -0.45874734623241       -0.74911191072548
C            1.90195711871959        0.29169170669794        0.23696727644991
C            0.44633157297846        0.45331218144667        0.38142174212104
O            0.00314176911183        1.29677906645410        1.18216307580601
C           -0.43423788046430       -0.40317876220050       -0.43150029454137
O            0.01780391957767       -1.25246559092576       -1.22168388800641
C           -1.88931135439398       -0.26769786765981       -0.26743807538754
C           -2.67882725983365       -1.16831313058116       -1.00100890786324
C           -4.05004356963042       -1.11831688962945       -0.93744827948018
C           -4.68241149079770       -0.17398121434251       -0.12698286512566
N           -6.07556660378728       -0.11676839507163       -0.05594272930620
C           -6.91905260877790       -1.18809825641563        0.16399014748231
C           -6.62831989304449       -2.52058338962161        0.40458764002599
C           -7.68135817770672       -3.39089398479951        0.62211560238992
C           -9.01557875738899       -2.97559883019886        0.61774899096207
C          -10.17139478564146       -3.93648096477888        0.85550501908000
C          -11.09888691501528       -3.91504069135932       -0.36804717716694
C          -10.94625228878755       -3.48761351047342        2.10287347835748
C           -9.71164330174897       -5.38000701148596        1.07650619503977
C           -9.29190612332851       -1.63015273262560        0.39946361094596
C           -8.25765850800884       -0.73733496673439        0.17831707189253
C           -8.21153571943924        0.68247616908420       -0.05151716020426
C           -9.19437602350373        1.65467053192776       -0.16691917670827
C           -8.83460263558330        2.96954707661912       -0.42198149310293
C           -9.85694288786367        4.08798210326204       -0.55682782687457
C           -9.74688976635820        4.70457033712094       -1.95863803824684
C          -11.29482078972006        3.59767036471029       -0.36536095575291
C           -9.57365042341687        5.15855575672994        0.50658238452866
C           -7.47518078950572        3.27450892935551       -0.57182997004000
C           -6.47710216139516        2.32768153102795       -0.46250679927723
C           -6.84850102181912        1.02127034501592       -0.18345980725851
C           -3.90541702810685        0.71121913658989        0.62014919480532
C           -2.53034886794035        0.66020324809023        0.54970765385226
C            2.69600748295756        0.99077471055773        1.15967070921593
C            4.06650247344409        0.90355403580691        1.11936827931545
H           10.96699741606439        5.37844787426565        1.73102488307053
H            9.21501992894699        5.19627405207831        1.72436299637976
H           10.22115352424383        3.96720432919003        2.48689939535087
H           10.94934473824878        5.59345845020987       -0.82833554477592
H           10.18322544219511        4.33173621797031       -1.79827570514305
H            9.19696642614964        5.41640019890157       -0.82118236368228
H           11.78569080094396        2.71351656814281       -0.68259407366279
H           11.79457006832621        2.55425120017130        1.08349418122041
H           12.41024578536574        4.01618023551326        0.32169798719453
H            7.61313231995320        4.38439074576399        0.37505291104866
H            5.71697543084953        2.86665282454829        0.27375274952720
H           10.36209096528197        1.11182167325733        0.05689808826864
H           10.19303562288387       -1.52092790251405       -0.18527279203396
H           11.36291833478715       -3.12913562818283       -1.30298898482297
H           11.85082386400403       -4.65250032796578       -0.56929964632553
H           11.46235388427491       -3.28034939898004        0.46101957500036
H            9.53686157487490       -4.35176687664794       -2.57404130200559
H            8.44560600231287       -5.44447341872937       -1.72582484356143
H           10.15772628264581       -5.83851279598023       -1.85063068757195
H            9.76188424328333       -4.68338182054801        1.70813256972621
H            8.57980911022210       -5.64173056172041        0.82040324223949
H           10.29266227286316       -6.03612547303453        0.70409914171177
H            7.05203562206453       -4.43465081068516       -0.29198275361200
H            5.36533600597350       -2.69791663761334       -0.07614662393303
H            4.39278198392385       -1.09757548768082       -1.58998410133247
H            1.94456555324074       -0.98586952699962       -1.48199203998614
H           -2.17727481140536       -1.88711272956839       -1.63181302854173
H           -4.64765372028936       -1.79169345740605       -1.53371999769088
H           -5.60966739898273       -2.87636943523851        0.43703964101759
H           -7.44078049284799       -4.42472976205183        0.80556132239622
H          -11.50841884289065       -2.92345618733541       -0.53889370937905
H          -11.92745086154689       -4.60498087147517       -0.22239425672285
H          -10.55181697590791       -4.21566934911431       -1.25923231495577
H          -11.36086469014089       -2.49154674971503        1.97590069242731
H          -11.76606845411591       -4.17456544045775        2.30224162948938
H          -10.28805475653714       -3.47457026607362        2.96917713127186
H          -10.58089838182233       -6.01581786443233        1.23279511890342
H           -9.17253794260298       -5.75697847290775        0.21048301366294
H           -9.07687801519869       -5.45945807229959        1.95597177154620
H          -10.30666131465835       -1.26342857118284        0.40423687322427
H          -10.22551260935949        1.36197995349364       -0.06059022582770
H          -10.48847121794881        5.49125529984995       -2.08083442430394
H           -9.92085899466505        3.94476671727467       -2.71782374979996
H           -8.76408377285857        5.13533967050286       -2.12772928036845
H          -11.55975119428470        2.85809690979193       -1.11747275503951
H          -11.97989552009273        4.43720600481179       -0.46536406260009
H          -11.43335152745032        3.16797808285068        0.62409123444182
H           -9.63027564211267        4.72307309786956        1.50210929677275
H          -10.30766587529609        5.95866202624791        0.43733750745331
H           -8.58573090965235        5.59240403806762        0.38070954223184
H           -7.18172225385247        4.29046686975807       -0.78684455442281
H           -5.44222323567766        2.60043970288022       -0.60309445711053
H           -4.38971606316409        1.42425994106201        1.27035176675994
H           -1.93848406345942        1.34474073385529        1.14019596300543
H            2.19971877113810        1.57882927893885        1.91721542300229
H            4.66497582904265        1.40630498408762        1.86432829891222
