114
 energy: -158.231874862217 gnorm: 0.000113020551 xtb: 6.7.1 (edcfbbe)
C           -2.25404535779538       -3.53182710408968        1.74803451119936
C           -1.06814838757206       -3.29267421943298        2.69074075811626
C           -1.58167676925082       -2.97222660265576        4.10189936324986
C           -0.25255609453443       -4.58672231824996        2.76480258520600
C           -0.25055377990725       -2.11524216635280        2.18252080391289
C           -0.85689956311369       -0.85655849976599        2.08228696710892
C           -0.17255021476898        0.27535980233989        1.68952861818319
C            1.17141076763217        0.15103616193210        1.36939860082998
C            1.78420672945835       -1.11763329596974        1.39285378172089
C            1.08082662526710       -2.23533910357080        1.81760064400718
C            3.12846305322470       -0.92978174759868        0.91946711841053
C            4.18393767690653       -1.80579558371240        0.70968160455821
C            5.39311669416260       -1.32540440505835        0.22979832223871
C            6.57851162079226       -2.23335405501877       -0.05881459523301
C            7.74859560060108       -1.83744059274628        0.85245125824525
C            6.98737779744148       -2.07436265058177       -1.53043606772712
C            6.25899886954590       -3.71082461997192        0.18537761154782
C            5.52321368741501        0.05229175398163        0.01238936831486
C            4.49137376124229        0.94612973940416        0.21827402604205
C            3.26986790068891        0.44696445127470        0.64484587185997
N            2.08330179817551        1.09675414815911        0.93079541766603
C            1.80572706264883        2.45616917914232        0.78744156037805
C            1.06896766132195        3.11235482978479        1.77412406766754
C            0.64182622946337        4.40639775167723        1.57669424867783
C            0.97604793988475        5.08860437670281        0.40842402500186
C            0.35885888357408        6.42233486186304        0.16289002486350
O            0.97357875379873        7.48927528415375        0.08767149923082
C           -1.11968776181375        6.33909060147714        0.08441540428111
O           -1.85255209338298        7.32324197149920        0.21526124598413
C           -1.58040506126148        4.95784806840413       -0.22774222661968
C           -1.15833722804237        4.36954693845350       -1.41882782570732
C           -1.42763881067735        3.04375745581679       -1.67404968869566
C           -2.09513725678881        2.26767698633485       -0.72622963504847
N           -2.20418583106031        0.89058040347590       -0.92258902740243
C           -3.31481221893727        0.09673445770977       -0.70943079169827
C           -4.60768558706230        0.44175446651929       -0.34552097322248
C           -5.54063810779598       -0.56899181469703       -0.22857001050057
C           -5.24126446043825       -1.91401380527103       -0.48117045709880
C           -6.33263234433206       -2.95800839324312       -0.30249050680876
C           -7.50652576955086       -2.63213316193822       -1.23626260423827
C           -6.80583989537525       -2.93612375436488        1.15819187312660
C           -5.84853768374138       -4.37488905991262       -0.62249708159806
C           -3.95562614299660       -2.24049498603680       -0.88535429412306
C           -2.99353434526196       -1.24727846506024       -0.99387360302292
C           -1.60689776863771       -1.26494559405628       -1.37741093988534
C           -0.73245201034693       -2.27751914652398       -1.73348330079369
C            0.59367722755394       -1.98345287653281       -2.02999749097196
C            1.52835189048175       -3.10895917898854       -2.44765107714554
C            0.99005694774334       -3.74393488109477       -3.73847568703217
C            2.95829501931227       -2.62895359291674       -2.71109903189415
C            1.58302585590152       -4.16231310065796       -1.33348743139565
C            1.01509742427057       -0.65478793681384       -1.94397921709210
C            0.16149246485198        0.37585106221636       -1.59677830919171
C           -1.16209717886054        0.07288235185888       -1.32506994001075
C           -2.59589066811799        2.88000913194924        0.42225404649714
C           -2.35287328100702        4.21983269033376        0.66067551588201
C            1.81198959255355        4.48020040176037       -0.51967228430587
C            2.20955715084266        3.16823714467506       -0.34203349135993
H           -2.83755459719937       -4.38464822217061        2.08991521516381
H           -2.90884870288100       -2.66636092069233        1.69989792505354
H           -1.89164560173049       -3.73622530614111        0.74374838375920
H           -2.14761117685482       -3.81434222263582        4.49478234673845
H           -0.74633888464969       -2.77593533656403        4.77089334317599
H           -2.22894704907220       -2.09976375442927        4.09962220125435
H           -0.88205096220609       -5.39017764282889        3.14212532298669
H            0.59288385180811       -4.47897640049546        3.44031446157485
H            0.10965824042921       -4.87820231533318        1.78167238413612
H           -1.90411279176564       -0.75343285595830        2.32310420847169
H           -0.68121107273379        1.22502015169319        1.62153875913620
H            1.59121186565762       -3.18270020693737        1.86251713524096
H            4.04083940824290       -2.85081440928169        0.92848863856803
H            8.06123512979681       -0.81243553776949        0.67369430771442
H            8.60058328909409       -2.48962779237406        0.67277856352622
H            7.45859346273349       -1.92763181072049        1.89728713478545
H            6.15391823377552       -2.32827404008071       -2.18210510511784
H            7.81969941072328       -2.73610208655656       -1.76020533735793
H            7.29441329119878       -1.05605576339104       -1.75109960951218
H            5.43511471191569       -4.04114893405217       -0.44315220302992
H            7.13096132751642       -4.31443986280301       -0.05791860027353
H            6.00878424365793       -3.89133691672914        1.22822232233081
H            6.46812758202146        0.44663854645133       -0.32810800473699
H            4.64773426329947        2.00224930861606        0.06140550703882
H            0.83260476341577        2.59664915318798        2.69196551963242
H            0.04722444110341        4.89893670400359        2.33111811357624
H           -0.61875311295693        4.95974326661629       -2.14387487911635
H           -1.12029563642885        2.59563951296786       -2.60632512494115
H           -4.88996634430343        1.46869733103886       -0.17057574027187
H           -6.54261547187560       -0.29589208948558        0.06458713119265
H           -7.94263614358479       -1.66432109420130       -1.00569597400454
H           -8.28382968536501       -3.38681364842822       -1.13726952880203
H           -7.17005003080140       -2.61648522432318       -2.27084651953443
H           -7.21613805741889       -1.96721363220796        1.42862333960214
H           -7.57732804305547       -3.68722163500090        1.31331860231056
H           -5.97380694038364       -3.15311793247922        1.82512760735764
H           -6.66394199132319       -5.07885595564517       -0.46932154841431
H           -5.52805643151861       -4.45426974054904       -1.65869479925480
H           -5.02767119588460       -4.66404036769832        0.02965406428839
H           -3.68149664895703       -3.25446338059360       -1.12159973390314
H           -1.09789524828233       -3.29197638546403       -1.77852377958908
H            1.64959942387101       -4.54475327558069       -4.06632324899824
H            0.93320781337329       -2.99840359207791       -4.52886948670767
H           -0.00310206689132       -4.15925318559856       -3.59136154509881
H            2.98762557535140       -1.90981308069428       -3.52649878756477
H            3.57610713936804       -3.47929927857281       -2.99500027857339
H            3.39011245401485       -2.17844402293383       -1.81990738840587
H            1.94474084024850       -3.70527812945048       -0.41655530427231
H            2.25664183605615       -4.97005509373148       -1.61313091159106
H            0.60304310568700       -4.59004269358559       -1.14076040556324
H            2.04269699608449       -0.40306453021196       -2.14756499163338
H            0.53065553919364        1.38753851357314       -1.52724611306689
H           -3.13691350692660        2.29459089055178        1.15032879695147
H           -2.72159848052408        4.68337495550858        1.56309444045876
H            2.11129618237194        5.01905529972770       -1.40583824136591
H            2.79820943366279        2.68008600012473       -1.10375432053770
