101
 energy: -159.022280056771 gnorm: 0.000050845242 xtb: 6.7.1 (edcfbbe)
C            5.02435771001569       -2.11657736666705       -0.61003495048805
C            5.94626599269643       -0.98286030185918       -0.27616546999460
C            7.32033924576267       -1.16588257750040       -0.29086512205065
C            8.18691560403167       -0.12607909543102        0.02800654640045
N            9.57626758690767       -0.33645127456464        0.00135702542176
C           10.29380992463759       -0.85209916135422       -1.05803652204748
C            9.85703826181200       -1.23068198245165       -2.32014804790761
C           10.79886764182341       -1.70010164110280       -3.21543130085732
C           12.14763655462152       -1.78617549815534       -2.87436911251975
C           12.59146452147797       -1.39184170333415       -1.62773641515147
C           11.66345439526435       -0.91633434292485       -0.70963502692113
C           11.76539478509316       -0.41656794045444        0.63296362410587
C           12.82594180433340       -0.24889510983240        1.51457854653980
C           12.56729220930019        0.25453564453989        2.77401387221662
C           11.26868728534645        0.57790861216088        3.16389076042144
C           10.19741860293840        0.41989974735846        2.30570989537831
C           10.45364189009991       -0.06689722290207        1.03122021678342
C            7.67165665741364        1.11832919621255        0.37226950965837
C            6.30256227951295        1.30478685626846        0.39590985781446
C            5.43418650336000        0.26991025825199        0.07300560252124
C            3.97057059966384        0.50041522373906        0.11859941703870
C            3.26082282177988        0.15624787855819        1.26182176607868
C            1.89749814015958        0.36729836005515        1.34351268801061
C            1.22687003434170        0.92076374763261        0.25949979580330
N           -0.16318012871970        1.13554274918974        0.32234352636010
C           -0.80502288979675        2.33596083565064        0.07760731196278
C           -0.27062335840536        3.57036068911081       -0.26298944870836
C           -1.14671166268739        4.62552812541309       -0.43458467504240
C           -2.52104328766247        4.46637747178008       -0.26591234476919
C           -3.05663671444069        3.24495199246594        0.09230508031083
C           -2.19515386042051        2.17017330725181        0.27193984366870
C           -2.39093930352953        0.79651607392050        0.64708454076815
C           -3.51363876254821        0.04811646528828        0.95112655012710
C           -3.35659720856672       -1.29990889501588        1.26856015170018
C           -4.50012996218780       -2.14504242586909        1.64792359181989
O           -4.36656851802239       -3.14924953562406        2.33799450813955
C           -5.84492269475438       -1.73058276062108        1.16962236616957
C           -6.04926569147410       -1.24771064396145       -0.12231983689985
C           -7.31714406399567       -0.89974098487425       -0.54430493432404
C           -8.40157357994828       -1.01343526389738        0.32303801953178
N           -9.69241958077208       -0.63102886379350       -0.09971788357986
C          -10.72825980671914       -1.56784245584681       -0.15364427237938
C          -10.51982189851620       -2.91936587801083        0.09424368919662
C          -11.56845849473660       -3.82454035835291        0.02844264140525
C          -12.84014683772271       -3.39786956962157       -0.29763846540216
C          -13.05899747872669       -2.05707597509328       -0.57981969008842
C          -12.01608921908055       -1.15152818713928       -0.51671546023767
O          -12.30573352858424        0.15403561260485       -0.84002477713003
C          -11.27170856752282        1.06056650494397       -0.79658740005485
C          -11.57664914128832        2.36935633654195       -1.12212340285812
C          -10.59679556351152        3.35044875178315       -1.07291405069558
C           -9.31746245571939        3.01214277436821       -0.68079765503269
C           -9.00712792349055        1.70043936816787       -0.35443881592127
C           -9.96905935415085        0.69990968621564       -0.42590026413826
C           -8.20420591737019       -1.51083942600476        1.60963821383362
C           -6.93947336372663       -1.87940092889303        2.01977944443449
C           -2.07221420221247       -1.87375443922964        1.28222744078186
C           -0.94524192676894       -1.14839456652689        0.97382856486180
C           -1.10303937820769        0.20051921795151        0.66746786696827
C            1.93171051166997        1.26304018501095       -0.88863564180248
C            3.30186956125295        1.06672092074884       -0.97050594717795
C            4.05396683300538        1.45286391880673       -2.20748645675335
H            4.23273003393281       -1.78792938187255       -1.28076888515158
H            5.56938070233153       -2.93394258194222       -1.07560049534540
H            4.55025735732785       -2.49280481401490        0.29648520522094
H            7.73078191648635       -2.13357096238484       -0.54144794338939
H            8.81675159524549       -1.15349520352806       -2.59809241412127
H           10.48400825428923       -2.00373373172777       -4.20344552866203
H           12.85320072127421       -2.16089409767586       -3.60163817408059
H           13.63866856601574       -1.44633333221127       -1.36918801970372
H           13.83072839114631       -0.51176177571933        1.21822368486717
H           13.37874781028457        0.39391977264373        3.47347389185423
H           11.09615688784497        0.95786213779320        4.16057923052336
H            9.19294167768653        0.65931917992225        2.62108862178899
H            8.34182434005389        1.93122847175217        0.60827089925168
H            5.89708946103829        2.26890158235734        0.66736208063521
H            3.78901948798784       -0.27283266464230        2.10097469836969
H            1.35493499935173        0.11677558641760        2.24264907090320
H            0.79325481743664        3.70609478322829       -0.38230129546842
H           -0.75720514100097        5.59678491895671       -0.70230953353423
H           -3.17242710056955        5.31536806022011       -0.41190415977919
H           -4.11984199591106        3.12431652829694        0.23583311900664
H           -4.48815806306859        0.51057194693728        0.96881699363293
H           -5.21676515409216       -1.17246949005126       -0.80566365850874
H           -7.47715627128071       -0.54039488164965       -1.55011581288269
H           -9.52848044973723       -3.26958251493325        0.33523604286812
H          -11.37720867049424       -4.86698283558295        0.23229051978633
H          -13.66063107328542       -4.09635914681942       -0.34594062267313
H          -14.03585310816230       -1.69241058506687       -0.85657711291805
H          -12.59127651175648        2.60091909094653       -1.40620647219980
H          -10.84405133270300        4.36817128652621       -1.33087636689810
H           -8.54781141341516        3.76624992506332       -0.62008682506632
H           -8.00756762558655        1.45449335585068       -0.03351214412730
H           -9.04557766071002       -1.60472751555493        2.28014083331100
H           -6.77658429315981       -2.26992532153559        3.01363950673924
H           -1.99527329132506       -2.92121426721349        1.53530376567169
H            0.02883573626185       -1.61260521198358        0.96761925905629
H            1.39743341543225        1.67822168531654       -1.73090055311499
H            4.67362041178527        2.32775871483170       -2.01166870615358
H            3.37024341133910        1.68888868003095       -3.01895016659900
H            4.71680952941167        0.64921347402712       -2.52284061833428
