101
 energy: -158.942377508563 gnorm: 0.000076324482 xtb: 6.7.1 (edcfbbe)
C            5.49910645676602       -1.50914863651797       -1.73804464767121
C            6.34196995081347       -0.73805033780246       -0.76768811606254
C            7.69516800332398       -1.01490451441250       -0.64629422388323
C            8.49634502609123       -0.31161323233422        0.24693115967625
N            9.86207181341658       -0.61820734551430        0.35885351614108
C           10.90142310645208        0.28569523062749        0.28107378782999
C           10.86858476214756        1.65052486014036        0.02835174089486
C           12.07286654786136        2.32665346583252       -0.02195085019473
C           13.28595010765084        1.66672284149818        0.16489687114098
C           13.32648597671401        0.30475088423908        0.39402542125582
C           12.12938419670058       -0.39659461047833        0.44962319654070
C           11.80144823062188       -1.78199231001543        0.64614712958493
C           12.56041323699359       -2.92068755830230        0.88147644187732
C           11.90882973959561       -4.12691449533236        1.05330246489757
C           10.51827950403718       -4.20392253136048        1.00527985336768
C            9.74135994332136       -3.08484487851496        0.77292435659753
C           10.39117253111389       -1.87342472028990        0.57838897890933
C            7.93689747394060        0.69526322147513        1.02671948778196
C            6.59258008650042        0.98480611353156        0.90035990119239
C            5.78553603928998        0.27761501826640        0.01626913083803
C            4.34382548450134        0.60205512144445       -0.07152304915454
C            3.41300895061801       -0.26661054038550        0.48832322905775
C            2.06148044070253        0.01029886819677        0.44489549044682
C            1.61987169457915        1.17242590500585       -0.18166031478286
N            0.25161200371104        1.46670067029467       -0.24355469318959
C           -0.33326523588875        2.66799788470071        0.10086021278476
C            0.24536773364305        3.81450449016084        0.62940224520586
C           -0.58385025665487        4.88245231685467        0.91910673464791
C           -1.95750600962950        4.81591351188209        0.70066408874315
C           -2.54297998027989        3.66734534259809        0.19784745999629
C           -1.73147975780729        2.58384056820657       -0.10169124068470
C           -1.99404641360427        1.25705889581572       -0.59711840988125
C           -3.14958498236597        0.61144289012980       -0.99489666942104
C           -3.06892499902694       -0.71389973615754       -1.44244734975701
C           -4.24267096087514       -1.45742515140633       -1.90627053958922
O           -4.09732528221163       -2.31644568604782       -2.83904664155696
C           -5.53550524808635       -1.22480571984125       -1.32391947299449
C           -6.68287718410925       -1.70283582230223       -2.00871769601779
C           -7.94176404448290       -1.52853112940623       -1.50484877319554
C           -8.12207835698504       -0.88659910591827       -0.27114582847596
N           -9.42447068181619       -0.68796681619958        0.25133915434702
C          -10.19543150912160       -1.76835781224820        0.64192595084036
C           -9.71577188498405       -3.07896681417278        0.59430931417467
C          -10.51774483476000       -4.13369648779918        0.98425076422254
C          -11.81033604449669       -3.90832394508495        1.43688405005192
C          -12.29734726967424       -2.61506637140951        1.51491415693382
C          -11.49949662381969       -1.54936973613113        1.12821480004566
O          -12.02360190780610       -0.29579328569421        1.25033638828627
C          -11.24663227285115        0.76211046827774        0.87860037592410
C          -11.79162418969414        2.03052351959430        1.00785419475949
C          -11.06036650480917        3.14069485357923        0.62289047149475
C           -9.78763523791713        2.97988581907410        0.09333969903222
C           -9.23597501932137        1.72054555848394       -0.03929074895541
C           -9.94656078736053        0.58867166188018        0.36494227687366
C           -7.00048642146301       -0.46142503989011        0.45298069865924
C           -5.73891923927266       -0.63474946311893       -0.05369707773457
C           -1.80093866413021       -1.32014698186081       -1.56226202996160
C           -0.64144589776099       -0.68711211998015       -1.17955977637572
C           -0.74068316611541        0.60236382194305       -0.66477240754226
C            2.54745731313500        2.03959923550091       -0.75150179454052
C            3.90658571295465        1.77327109954597       -0.69882168016489
C            4.88401140034799        2.72432359427108       -1.32104942779181
H            4.93020134295093       -2.27800257176160       -1.21522573227350
H            4.78655538831361       -0.85599471054738       -2.23771183307464
H            6.12051278016989       -1.99694059354689       -2.48511129737917
H            8.14299758210361       -1.77952112105712       -1.26464212690577
H            9.93456339302938        2.16703634840145       -0.13292250447733
H           12.07442284869813        3.38984359531834       -0.21369639810775
H           14.20624193885788        2.23057318901050        0.12069072109641
H           14.26802375122385       -0.20780775143335        0.52375885360721
H           13.63730573712631       -2.86022495875205        0.93349714043344
H           12.48126190463558       -5.02456146372437        1.23597099708973
H           10.03685023032253       -5.15907641946812        1.15722515871848
H            8.66416018822580       -3.15125823453815        0.75413605853902
H            8.55115071895357        1.23217912131089        1.73359349431719
H            6.15198405329586        1.75993747259922        1.51011103152407
H            3.75932974424325       -1.16339594876621        0.98105439423515
H            1.34740918797664       -0.65653519739231        0.90382401456465
H            1.30632020255552        3.86942033851146        0.81912099217996
H           -0.15684410608257        5.78657442538681        1.32776894613672
H           -2.57301552824523        5.67116381506724        0.93775270913069
H           -3.61027479383973        3.60917484130643        0.04492681060683
H           -4.09341365281404        1.13458601783938       -0.99749059562421
H           -6.52442309563861       -2.19259093579362       -2.95889450832060
H           -8.80674725111593       -1.86679123681063       -2.05780726191487
H           -8.70854746765603       -3.25592322950746        0.25268911689772
H          -10.12783510580435       -5.13841795714155        0.93689718750377
H          -12.43471981349746       -4.73436432350364        1.73746037504406
H          -13.29102447083983       -2.40590657103977        1.87741011691671
H          -12.78894609453574        2.12085835498919        1.40744539268083
H          -11.48729731031016        4.12530106114523        0.72719737740699
H           -9.22009495456642        3.84102679092034       -0.22294968814836
H           -8.25258915044324        1.59640289094673       -0.46310590358685
H           -7.14027880044473       -0.01664192831847        1.42849733961600
H           -4.88559947626359       -0.35216698575366        0.54391364266091
H           -1.76669644362195       -2.32131415577155       -1.96791817447376
H            0.31429941844043       -1.17774965364645       -1.28615955113254
H            2.19451629999975        2.92417674991126       -1.26152055070942
H            5.31907518846541        3.36873278474774       -0.55719802562741
H            4.39058119527151        3.35556008076993       -2.05606195743205
H            5.69748788672370        2.18486497932200       -1.80145283193723
