101
 energy: -159.022238204814 gnorm: 0.000058477563 xtb: 6.7.1 (edcfbbe)
C            5.57997208269491       -1.88126392229440       -1.37649901091993
C            6.37682956651525       -0.89254288947976       -0.58016322245072
C            7.74329297026460       -1.05852855530397       -0.41540358878360
C            8.49302667150210       -0.15326027944317        0.32799438243343
N            9.87983562739507       -0.33452693485499        0.46491934955543
C           10.77397720495295       -0.51608938382749       -0.57016681423369
C           10.55026975268447       -0.52547182357937       -1.94017191540890
C           11.63907456887472       -0.70710396234442       -2.77112863709075
C           12.92584848139022       -0.86799700908179       -2.26011292954889
C           13.15819144373332       -0.83708434286417       -0.89942449810087
C           12.07930978208805       -0.65623012927066       -0.04298307433875
C           11.95415530519448       -0.55890861058060        1.38438121160966
C           12.86266516651700       -0.63654599600254        2.43254729427169
C           12.39296953913893       -0.52354963823236        3.72607412981073
C           11.03446500411241       -0.34536483774538        3.98203847992126
C           10.11165343708058       -0.26367143610579        2.95692214524266
C           10.58001406248964       -0.35689627464687        1.65344785557881
C            7.86348608781520        0.93111376497125        0.92844876341019
C            6.50040269273974        1.09760658364479        0.77415238306381
C            5.75097291468941        0.20292991839245        0.02109313328721
C            4.29288119198631        0.42110741352195       -0.13315430136617
C            3.40496779757209       -0.22031499105388        0.72040749060653
C            2.04160235220450       -0.01956916751382        0.61069406722586
C            1.55427306900284        0.82694300675499       -0.37739353037320
N            0.16953743645300        1.04481586390609       -0.50867777233568
C           -0.44801197064784        2.28189065612694       -0.54321029883276
C            0.10335318295966        3.54834055905342       -0.41036528928131
C           -0.75331140606385        4.63167861073293       -0.46197921684766
C           -2.12671923072133        4.46716320835186       -0.63303972167166
C           -2.68357488785545        3.20830356932102       -0.74378498186615
C           -1.84166289839334        2.10440452266096       -0.69726299660859
C           -2.06478495551880        0.68585997056382       -0.75787449228045
C           -3.20088624206790       -0.08826245885253       -0.90910595450905
C           -3.06885840951079       -1.47531743799327       -0.94339848823521
C           -4.23021750977841       -2.36042191528723       -1.12890609028083
O           -4.12216960038009       -3.48584054226913       -1.60266444810314
C           -5.56029522223028       -1.83603781483303       -0.72351573834118
C           -6.67665740873754       -2.16154715597254       -1.49232574942770
C           -7.92964502169211       -1.69874244132763       -1.14641208179063
C           -8.09247777843517       -0.92156231865325       -0.00141286169639
N           -9.36964261791100       -0.43986507792879        0.35611904618201
C          -10.40488476780195       -1.32708875045666        0.66380023989958
C          -10.21518231248522       -2.70312608355859        0.70799439497334
C          -11.26329670046300       -3.55592080187874        1.02037939761356
C          -12.51501568461302       -3.04918827714425        1.30641724985707
C          -12.71354937735908       -1.67598683502673        1.29803165070486
C          -11.67108107219487       -0.82204306050816        0.98874646415049
O          -11.93888737395381        0.52679319823247        1.03318534840075
C          -10.90543619322357        1.38653398103900        0.74072935558642
C          -11.18784732946216        2.73932285402125        0.78613229298177
C          -10.20816133762348        3.67078889456733        0.47340507104617
C           -8.95303875219743        3.23540960031755        0.09909033134489
C           -8.66521843494845        1.87954629014582        0.05378509147432
C           -9.62528425224825        0.93391900964892        0.39367918740311
C           -6.98591592177003       -0.62515294797221        0.79172655339918
C           -5.73070606134534       -1.07272047364240        0.43099585080834
C           -1.79248463282637       -2.06138841144963       -0.86356933915522
C           -0.65211363268273       -1.30903555769353       -0.70454109680293
C           -0.78958981824309        0.07461119838753       -0.63452096418724
C            2.43857044348734        1.46534570874648       -1.23949776268038
C            3.80732396324925        1.27931227790571       -1.12455178600805
C            4.75295671736355        1.98413582310049       -2.04864365264410
H            4.91151164206838       -1.37241230671539       -2.06866241236548
H            6.23432530460583       -2.54445264741331       -1.93673559437529
H            4.96333876420638       -2.48697679467543       -0.71265150535752
H            8.23829239774122       -1.90885889665673       -0.86197159397057
H            9.55963983911443       -0.38633089218540       -2.34609016152834
H           11.49074147873423       -0.72150148888240       -3.84128757424473
H           13.75103970217655       -1.00998702329912       -2.94278237615555
H           14.15747046512497       -0.94724005865699       -0.50483062475861
H           13.91369153498146       -0.78818709915659        2.23554424802617
H           13.08368574941042       -0.58044328880958        4.55479245188515
H           10.69541318095272       -0.27362631211619        5.00547454082682
H            9.05950753849315       -0.14073051999393        3.16558477292261
H            8.44246921743178        1.64135818683746        1.49917569891914
H            6.00672961074901        1.93851586440853        1.23987205262171
H            3.79085648206637       -0.87563221372845        1.48782262960584
H            1.35774994278991       -0.50469955011660        1.29069292229737
H            1.16360171734555        3.68465781979910       -0.26242792983765
H           -0.34968046936415        5.62879517960187       -0.36431000742198
H           -2.76202916014361        5.33971876046776       -0.67006931533275
H           -3.74894860267048        3.07985196578708       -0.86196592835077
H           -4.16560892832284        0.37888539867498       -1.03170001780564
H           -6.53952243046936       -2.76662371576603       -2.37660250890575
H           -8.78767374993769       -1.93355096148659       -1.75875747576933
H           -9.23885734456339       -3.11282784376703        0.50213992537686
H          -11.08691841920846       -4.62049155776847        1.04106493475354
H          -13.33507780595949       -3.70771669234753        1.54566953227358
H          -13.67353435129289       -1.24477045525920        1.53525622888554
H          -12.18492239110171        3.04313028077798        1.06417570065190
H          -10.43764733199733        4.72390091349460        0.51452905586006
H           -8.18499070452360        3.94602952873640       -0.16528586930548
H           -7.68544613126428        1.55331538850264       -0.25644272398815
H           -7.11943175358395       -0.04486288871398        1.69274804011901
H           -4.88198253830833       -0.85409530825840        1.06144863923481
H           -1.73282979804342       -3.13837159461916       -0.92465324330006
H            0.31812968066909       -1.77775725954112       -0.64789411164516
H            2.04653521702448        2.10766460180680       -2.01471907283468
H            4.21228298147561        2.49165985190750       -2.84342544228696
H            5.45579396675631        1.28028700465250       -2.49102644663780
H            5.33603967292569        2.72226750030975       -1.49856961682116
