  101
       -158.95592595
 C          5.5839403286       -1.8401717429       -1.4503799123
 C          6.3702090453       -0.8691153104       -0.6224945683
 C          7.7364992780       -1.0292327078       -0.4563451812
 C          8.4756752430       -0.1398770616        0.3168255428
 N          9.8581620073       -0.3170354229        0.4622247684
 C         10.7622804646       -0.4964051398       -0.5656503267
 C         10.5526138993       -0.5008435371       -1.9372881401
 C         11.6504671670       -0.6774459544       -2.7574489702
 C         12.9315459620       -0.8378460734       -2.2339671715
 C         13.1498491741       -0.8104379154       -0.8711668382
 C         12.0619942294       -0.6344071513       -0.0261942722
 C         11.9240920291       -0.5380330404        1.3999226226
 C         12.8247179543       -0.6135075445        2.4542937287
 C         12.3448138087       -0.4998403786        3.7435934231
 C         10.9842098245       -0.3276455077        3.9889750193
 C         10.0689854043       -0.2489527475        2.9569059800
 C         10.5483180953       -0.3388775843        1.6578994325
 C          7.8339175044        0.9241467858        0.9415722311
 C          6.4707847470        1.0834715241        0.7864980931
 C          5.7321407448        0.2014032041        0.0086398433
 C          4.2726430255        0.4059004285       -0.1420746767
 C          3.3902792892       -0.2759442813        0.6848540360
 C          2.0253928100       -0.0877882327        0.5775144668
 C          1.5296573689        0.7866041187       -0.3820233793
 N          0.1463953436        0.9941494064       -0.5099379469
 C         -0.4802119351        2.2265117526       -0.5409719410
 C          0.0591039627        3.4963706308       -0.3952982042
 C         -0.8062386125        4.5726046461       -0.4449766351
 C         -2.1766340858        4.3978228235       -0.6255458105
 C         -2.7219489686        3.1353974541       -0.7468088527
 C         -1.8714119535        2.0386966602       -0.7016615314
 C         -2.0837771239        0.6194838114       -0.7694804684
 C         -3.2150188522       -0.1607409891       -0.9287032902
 C         -3.0743436145       -1.5451735076       -0.9673909585
 C         -4.2351945615       -2.4385624340       -1.1579229728
 O         -4.1279288408       -3.5506722760       -1.6460752810
 C         -5.5586075956       -1.9080769278       -0.7348895246
 C         -6.6833276051       -2.2072137998       -1.5010309020
 C         -7.9246885848       -1.7189716446       -1.1494732456
 C         -8.0681435938       -0.9433261628       -0.0009541851
 N         -9.3271193194       -0.4249377177        0.3576804664
 C        -10.3983374459       -1.2776788894        0.6411298938
 C        -10.2677787576       -2.6606298632        0.6395538856
 C        -11.3510318746       -3.4767220586        0.9286308748
 C        -12.5781980906       -2.9253075916        1.2358912943
 C        -12.7163993341       -1.5458057681        1.2752912017
 C        -11.6391135845       -0.7278572863        0.9898213337
 O        -11.8456917836        0.6259402589        1.0841074657
 C        -10.7853121564        1.4498916978        0.8019726401
 C        -11.0126905831        2.8111982525        0.8821041413
 C        -10.0007122171        3.7098288229        0.5786599738
 C         -8.7691270191        3.2349089049        0.1766107256
 C         -8.5356497121        1.8703373399        0.0969328638
 C         -9.5275888574        0.9563065040        0.4302078405
 C         -6.9535048437       -0.6793500518        0.7930307556
 C         -5.7099353946       -1.1507602920        0.4257901427
 C         -1.7968485655       -2.1240561143       -0.8867464138
 C         -0.6608025637       -1.3652499662       -0.7212237832
 C         -0.8071506305        0.0159354752       -0.6432701369
 C          2.4097361400        1.4631570799       -1.2197780210
 C          3.7794468414        1.2894616501       -1.1064066572
 C          4.7213083289        2.0311969518       -2.0049539817
 H          4.8996849067       -1.3172947102       -2.1169006417
 H          6.2449250337       -2.4684706243       -2.0421339664
 H          4.9843858996       -2.4837520785       -0.8064289056
 H          8.2391926828       -1.8646191576       -0.9218201560
 H          9.5663016899       -0.3593600624       -2.3533881248
 H         11.5126421722       -0.6879962736       -3.8286252313
 H         13.7633045074       -0.9764931862       -2.9083683936
 H         14.1444296448       -0.9189094672       -0.4656699746
 H         13.8768700802       -0.7627725868        2.2643111340
 H         13.0283730675       -0.5539255889        4.5776711197
 H         10.6363262220       -0.2579651021        5.0090608497
 H          9.0144594409       -0.1328075650        3.1577434889
 H          8.4054954284        1.6257136551        1.5299213907
 H          5.9665573031        1.9071796014        1.2714191368
 H          3.7827748319       -0.9515014912        1.4310794684
 H          1.3461383969       -0.6019631678        1.2404961843
 H          1.1172194176        3.6404952350       -0.2372656203
 H         -0.4113556206        5.5718372153       -0.3381371414
 H         -2.8184766735        5.2650285715       -0.6620771858
 H         -3.7855166336        2.9976360360       -0.8709044535
 H         -4.1814547990        0.3027904224       -1.0517849816
 H         -6.5611508919       -2.8096791153       -2.3884711041
 H         -8.7890005789       -1.9269213045       -1.7624774482
 H         -9.3101002158       -3.1054258903        0.4197013282
 H        -11.2209697488       -4.5477896133        0.9139170020
 H        -13.4250297007       -3.5554156171        1.4567895985
 H        -13.6550225167       -1.0816925943        1.5325450457
 H        -11.9931340113        3.1473015377        1.1791453564
 H        -10.1861473789        4.7699567533        0.6469196241
 H         -7.9774068108        3.9206757517       -0.0833415510
 H         -7.5736762953        1.5135255077       -0.2360681750
 H         -7.0733605584       -0.1031798834        1.6987346643
 H         -4.8546325361       -0.9565329852        1.0556975358
 H         -1.7297663122       -3.1993037857       -0.9551374881
 H          0.3129135184       -1.8276817514       -0.6677889402
 H          2.0122606818        2.1241402347       -1.9764141199
 H          4.1772218611        2.5681661771       -2.7777401639
 H          5.4222429271        1.3447370238       -2.4783286964
 H          5.3067626974        2.7478310059       -1.4297428994
