  108
  -158.648581782700       0.312279768075809      !
 C         -2.9228158884        6.8100426204        0.6275772627
 C         -1.6691678874        5.9803593433        0.2944574122
 C         -0.4674414023        6.9108161450        0.0461540439
 C         -1.9301896793        5.1845237912       -0.9679179836
 C         -2.2472888284        5.8479231334       -2.1448233760
 C         -2.4753705294        5.1715557305       -3.3293130945
 C         -2.3709655692        3.7907895670       -3.3541617948
 C         -2.0550513652        3.1066932653       -2.2015035647
 C         -1.8454969527        3.7859394177       -0.9949638629
 N         -1.5454142302        3.0702312360        0.1454035984
 C         -1.4986420838        1.6471103560        0.0731462489
 C         -0.2809833828        1.0091521410       -0.0076231394
 C         -0.2072012636       -0.3991797192       -0.0735610775
 C          1.0215915798       -1.1252801783       -0.1197522844
 C          2.2965744868       -0.5329350840       -0.1560308353
 C          3.4077174231       -1.3568576538       -0.1807164784
 C          4.7738242282       -0.8727786610       -0.1999821833
 C          5.1107397322        0.4676391976       -0.4266854045
 C          6.4250332954        0.8757845962       -0.4233463676
 C          7.4661986533       -0.0292921561       -0.2035271917
 C          8.8629899495        0.4130304840       -0.2026164388
 C          9.8647864663       -0.3825652363       -0.7589790301
 C         11.1813508662        0.0363412152       -0.7592252784
 C         11.5262828548        1.2559735618       -0.2003449086
 C         10.5417091169        2.0547078107        0.3577671790
 C          9.2238980882        1.6396557986        0.3553768035
 C          7.1327659848       -1.3690307358        0.0117429650
 C          5.8215334566       -1.7806361996        0.0152790674
 N          3.2371666706       -2.7071033840       -0.1638149003
 C          2.0228910103       -3.2260185002       -0.1271076316
 C          1.8828743216       -4.6837277335       -0.1006453657
 C          3.0053219691       -5.4982980389       -0.2266985754
 C          2.8731228491       -6.8732156807       -0.1991454721
 C          1.6216027634       -7.4483123664       -0.0449762567
 C          0.5003606592       -6.6431299912        0.0817423975
 C          0.6281848777       -5.2681185948        0.0540432679
 N          0.9408070283       -2.4863880437       -0.1109130826
 C         -1.4291612907       -1.1115820817       -0.0838816586
 C         -2.6351999548       -0.4581354145       -0.0021732362
 N         -3.8517233350       -1.2002248751       -0.0078562635
 C         -4.6219117382       -1.2037172177       -1.1523527686
 C         -4.1507768294       -0.5610764270       -2.3043474111
 C         -4.9050683719       -0.5263934772       -3.4557528982
 C         -6.1457693721       -1.1414278518       -3.4856916275
 C         -6.6026214250       -1.8014116505       -2.3597151539
 C         -5.8628759383       -1.8541120819       -1.1866626575
 C         -6.4043195054       -2.6125757257        0.0072742092
 C         -7.7377179567       -1.9727889371        0.4371385623
 C         -6.6269252902       -4.0799760015       -0.4029327396
 C         -5.4501900564       -2.5721879095        1.1833685399
 C         -5.7816662011       -3.2357920715        2.3564109634
 C         -4.9599491255       -3.2142950060        3.4681742111
 C         -3.7742373645       -2.4997410859        3.4224304766
 C         -3.4202641918       -1.8305356741        2.2721738860
 C         -4.2394385784       -1.8670733626        1.1363805245
 C         -2.6979031077        0.9345117405        0.0898867309
 C         -1.3178661027        3.6871858226        1.3579513745
 C         -1.0534180188        2.9076016355        2.4910579462
 C         -0.8071955794        3.4951081065        3.7121778553
 C         -0.8234564828        4.8750475510        3.8294939127
 C         -1.0999037953        5.6475743297        2.7163081205
 C         -1.3549398397        5.0834246815        1.4743718249
 H         -2.7654835465        7.4076504299        1.5206990240
 H         -3.7692247030        6.1482955157        0.8013455521
 H         -3.1726345376        7.4797812239       -0.1901017916
 H         -0.6627959812        7.5806717604       -0.7862841560
 H         -0.2551051684        7.5114647959        0.9258757505
 H          0.4158739959        6.3198999193       -0.1882614223
 H         -2.3183705517        6.9247701697       -2.1446770633
 H         -2.7243030079        5.7188306283       -4.2252984661
 H         -2.5326054189        3.2463730516       -4.2721504259
 H         -1.9606784691        2.0335652144       -2.2259309140
 H          0.6139795586        1.6101197870       -0.0090929891
 H          2.4039111948        0.5377179548       -0.1496344020
 H          4.3408437467        1.1978327339       -0.6260307702
 H          6.6581336424        1.9120010707       -0.6231788204
 H          9.6022942966       -1.3262122412       -1.2144795370
 H         11.9436889472       -0.5896946846       -1.2004247320
 H         12.5558876378        1.5819891505       -0.1995196117
 H         10.8043593372        3.0049700991        0.8004375326
 H          8.4657559356        2.2597866341        0.8114450017
 H          7.9171628013       -2.0868542273        0.2040268349
 H          5.5717644965       -2.8148039097        0.1968359361
 H          3.9721012872       -5.0343360691       -0.3491868449
 H          3.7464802536       -7.5011367742       -0.2980813093
 H          1.5197461537       -8.5234784266       -0.0229221516
 H         -0.4749231639       -7.0916048432        0.2043162447
 H         -0.2348168495       -4.6278960322        0.1561204313
 H         -1.3966261899       -2.1866878511       -0.1540412071
 H         -3.1793517707       -0.0953025289       -2.2885001993
 H         -4.5235624573       -0.0218954534       -4.3304849836
 H         -6.7487229541       -1.1165053667       -4.3801992017
 H         -7.5649585144       -2.2879491422       -2.4026709713
 H         -7.5755311321       -0.9346437060        0.7209951476
 H         -8.1623618538       -2.4984173949        1.2875723861
 H         -8.4583536023       -1.9980733550       -0.3752623132
 H         -7.0379726466       -4.6548354560        0.4216549809
 H         -7.3145847936       -4.1480751004       -1.2406905558
 H         -5.6803801883       -4.5284175211       -0.6975834074
 H         -6.7086399089       -3.7857565468        2.4111272725
 H         -5.2462425271       -3.7448340783        4.3630549859
 H         -3.1247442141       -2.4626285199        4.2836519380
 H         -2.4988060033       -1.2721924140        2.2421087337
 H         -3.6447317200        1.4457192578        0.1557756253
 H         -1.0433919157        1.8332237469        2.4025302013
 H         -0.6030357708        2.8755349816        4.5721796497
 H         -0.6278519384        5.3466665212        4.7800746017
 H         -1.1164872738        6.7211316284        2.8253482658
  108
  -158.648572118300       0.309102414450075      !
 C         -2.9792484246        6.8301530067        0.2773531498
 C         -1.7121273052        6.0046060483       -0.0109057050
 C         -0.5262423273        6.9396258620       -0.3110972372
 C         -1.9619414705        5.1365502797       -1.2273548196
 C         -2.2854611965        5.7290066374       -2.4398811910
 C         -2.5115305225        4.9837162290       -3.5825791249
 C         -2.4053474642        3.6038349397       -3.5266445093
 C         -2.0842763121        2.9888145376       -2.3370282757
 C         -1.8669214284        3.7394570928       -1.1748500405
 N         -1.5535047915        3.0934944997        0.0027073290
 C         -1.5019676408        1.6684648452        0.0100494080
 C         -0.2913534782        1.0282018913       -0.1313198291
 C         -0.2192043769       -0.3811730604       -0.1520425161
 C          1.0067692733       -1.1035308355       -0.2856745897
 C          2.2806993448       -0.5229204542       -0.1700638909
 C          3.3927523305       -1.3393298157       -0.2877018026
 C          4.7582158617       -0.8790721552       -0.1430681570
 C          5.0952169206        0.4152799288        0.2743618626
 C          6.4110299492        0.7931580751        0.4128786580
 C          7.4550231791       -0.0976808734        0.1509804718
 C          8.8530149811        0.3063769440        0.3178050151
 C          9.2737955057        1.5916489775       -0.0248491595
 C         10.5929334055        1.9698752148        0.1349492901
 C         11.5196851419        1.0745079706        0.6432613788
 C         11.1151819931       -0.2043692397        0.9891533870
 C          9.7973120533       -0.5857319221        0.8271046334
 C          7.1213229958       -1.3888289080       -0.2671318050
 C          5.8092594986       -1.7691791420       -0.4131780529
 N          3.2175084333       -2.6639519918       -0.5498509557
 C          2.0034985442       -3.1720199034       -0.6534434042
 C          1.8627864149       -4.6016800536       -0.9389004812
 C          0.6014527912       -5.1618448924       -1.1250850502
 C          0.4730840497       -6.5088292606       -1.4029689817
 C          1.6004801105       -7.3095708956       -1.4988205852
 C          2.8587066654       -6.7585464132       -1.3143814286
 C          2.9912019738       -5.4120544172       -1.0354861443
 N          0.9209131210       -2.4445602154       -0.5150330049
 C         -1.4339124287       -1.0953117799       -0.0366521033
 C         -2.6302685573       -0.4383064751        0.1199975871
 N         -3.8373037356       -1.1849459211        0.2610265870
 C         -4.5996347391       -1.4392390387       -0.8584298507
 C         -4.1638890049       -0.9802340779       -2.1077865457
 C         -4.9063463022       -1.2116340724       -3.2440924770
 C         -6.0990611690       -1.9108785668       -3.1575492096
 C         -6.5278597982       -2.3737833481       -1.9269744743
 C         -5.8018055395       -2.1537535477       -0.7650167310
 C         -6.3150227244       -2.6917323151        0.5550033261
 C         -7.7051857745       -2.0887920952        0.8284457995
 C         -6.4112369105       -4.2253780831        0.4561319674
 C         -5.3969503996       -2.3370742809        1.7069375512
 C         -5.7212509770       -2.7408637185        2.9943229025
 C         -4.9207717870       -2.4383731157        4.0806606137
 C         -3.7588433551       -1.7093793662        3.8879027536
 C         -3.4100858262       -1.2979876229        2.6209341250
 C         -4.2156846223       -1.6068721772        1.5175818031
 C         -2.6933919189        0.9564163737        0.1505080654
 C         -1.3229823832        3.7795643112        1.1760710039
 C         -1.0293895962        3.0667934676        2.3453410156
 C         -0.7858440608        3.7235879321        3.5311096177
 C         -0.8327335272        5.1072714584        3.5751003200
 C         -1.1307799374        5.8138589456        2.4242757867
 C         -1.3819714714        5.1792331893        1.2160339600
 H         -3.8140569905        6.1650117946        0.4893355172
 H         -3.2411032446        7.4483894739       -0.5763526383
 H         -2.8313483671        7.4794905994        1.1353013764
 H         -0.7345507688        7.5626036266       -1.1760796531
 H         -0.3210556025        7.5882240699        0.5355875157
 H          0.3657264858        6.3516998527       -0.5181426458
 H         -2.3641110763        6.8036643814       -2.5016247747
 H         -2.7632516587        5.4767507053       -4.5088299598
 H         -2.5704095128        3.0064268955       -4.4104151614
 H         -1.9928943264        1.9156114900       -2.2970565205
 H          0.5976671425        1.6272771007       -0.2464316518
 H          2.3847363937        0.5300886185        0.0259888604
 H          4.3230808573        1.1319017024        0.5105079387
 H          6.6407715232        1.7902347340        0.7606669126
 H          8.5627716286        2.2909033164       -0.4403570254
 H         10.9021336439        2.9679237684       -0.1407941343
 H         12.5503283374        1.3715494551        0.7691353969
 H         11.8316179695       -0.9068886135        1.3904047495
 H          9.4874343816       -1.5786714429        1.1184416994
 H          7.9085513603       -2.0911832742       -0.5005617664
 H          5.5608622252       -2.7657306708       -0.7448939453
 H         -0.2663960227       -4.5240158459       -1.0520975551
 H         -0.5075830621       -6.9387082487       -1.5471483141
 H          1.4982793877       -8.3624321910       -1.7176265349
 H          3.7372160638       -7.3827868686       -1.3896665645
 H          3.9636552801       -4.9675056370       -0.8883763706
 H         -1.4032090451       -2.1726256892       -0.0569482248
 H         -3.2314989293       -0.4437697128       -2.1761262598
 H         -4.5536064180       -0.8485661627       -4.1973754891
 H         -6.6895681747       -2.0979585679       -4.0410757326
 H         -7.4558948092       -2.9225082479       -1.8776854362
 H         -8.4001123553       -2.3409444907        0.0327874463
 H         -7.6326713059       -1.0047206655        0.8912710353
 H         -8.1111127214       -2.4602109383        1.7648481254
 H         -7.0699248718       -4.5197859584       -0.3559056775
 H         -5.4254066548       -4.6466669460        0.2694974827
 H         -6.7963468449       -4.6487898636        1.3793343431
 H         -6.6235642450       -3.3088013223        3.1615157351
 H         -5.2025152971       -2.7685561840        5.0684506359
 H         -3.1237422806       -1.4619981922        4.7249052408
 H         -2.5041212742       -0.7333729307        2.4710111113
 H         -3.6349250972        1.4683438303        0.2665517374
 H         -0.9934791639        1.9896975305        2.3114510656
 H         -0.5589955136        3.1558371108        4.4206234852
 H         -0.6413580788        5.6328009030        4.4978978048
 H         -1.1675960487        6.8912399340        2.4760363387
  108
  -158.648224863600       0.214049977639017      !
 C         -2.9105843888        6.8544974701        0.2564684703
 C         -1.6376254048        5.9886175862        0.2804103081
 C         -0.3876813746        6.8844259117        0.3619223004
 C         -1.5740701114        5.1833906914       -1.0015529895
 C         -1.5505206791        5.8386589380       -2.2245949954
 C         -1.4971183885        5.1511129244       -3.4232861865
 C         -1.4681740207        3.7663159662       -3.4127572286
 C         -1.4875473687        3.0893930651       -2.2136470538
 C         -1.5355875614        3.7825371104       -0.9976092533
 N         -1.5467056061        3.0763989434        0.1866699177
 C         -1.5050474839        1.6515426723        0.1397259679
 C         -0.2900347425        1.0099984218        0.0559675792
 C         -0.2193928560       -0.3988268476       -0.0066558550
 C          1.0068391964       -1.1235387476       -0.1078445019
 C          2.2835325129       -0.5334330771       -0.0799601869
 C          3.3924088692       -1.3523064482       -0.1942485006
 C          4.7597601753       -0.8709405512       -0.1870071064
 C          5.1133616048        0.4322802235        0.1841412207
 C          6.4284465429        0.8379693057        0.1698660666
 C          7.4533246785       -0.0335194623       -0.2063432793
 C          8.8514722502        0.4044390369       -0.2172341138
 C          9.1943636598        1.6906732643       -0.6346159895
 C         10.5134823889        2.1012124932       -0.6483465924
 C         11.5177423976        1.2378628709       -0.2422629779
 C         11.1909333006       -0.0413602470        0.1765988357
 C          9.8728203711       -0.4552404330        0.1875002607
 C          7.1030992128       -1.3368320693       -0.5685447598
 C          5.7910520663       -1.7454453227       -0.5605524228
 N          3.2184682989       -2.6938906888       -0.3412054473
 C          2.0030592429       -3.2112151573       -0.3598690872
 C          1.8631047785       -4.6603435054       -0.5194558743
 C          0.6034416055       -5.2371201152       -0.6595515981
 C          0.4782736951       -6.6040302495       -0.8144360650
 C          1.6068221585       -7.4083698383       -0.8312316911
 C          2.8634390291       -6.8408427122       -0.6911266481
 C          2.9930640453       -5.4742748103       -0.5361159532
 N          0.9229543198       -2.4777256189       -0.2429408981
 C         -1.4422227317       -1.1095054677        0.0298330600
 C         -2.6441189338       -0.4510427258        0.1208483825
 N         -3.8607015587       -1.1949920784        0.1644519581
 C         -4.4913456808       -1.5128518163       -1.0188274516
 C         -3.9190865880       -1.1143631253       -2.2335145698
 C         -4.5246992916       -1.4168551692       -3.4326574235
 C         -5.7152564754       -2.1250326607       -3.4444631621
 C         -6.2831536560       -2.5202097360       -2.2469944612
 C         -5.6970865939       -2.2276769847       -1.0236289254
 C         -6.3634681017       -2.6861262059        0.2575419901
 C         -7.7743715843       -2.0730746609        0.3278782004
 C         -6.4522970403       -4.2234839720        0.2422705501
 C         -5.5851638462       -2.2590847398        1.4853471304
 C         -6.0604177081       -2.5826804581        2.7482628506
 C         -5.3860088221       -2.2202430037        3.8999795873
 C         -4.1966750179       -1.5172052396        3.7997584576
 C         -3.6996537916       -1.1847321665        2.5593745574
 C         -4.3825068010       -1.5453146058        1.3908881400
 C         -2.7063353217        0.9431889285        0.1740164932
 C         -1.6214462038        3.7022517975        1.4126305332
 C         -1.6369211204        2.9300943920        2.5808629099
 C         -1.7136124680        3.5249479100        3.8205411649
 C         -1.7723429016        4.9051857835        3.9202381636
 C         -1.7484500041        5.6712034685        2.7690121754
 C         -1.6739482362        5.0995482266        1.5068061551
 H         -3.7906193325        6.2175080053        0.1906577894
 H         -2.9072467739        7.5244946098       -0.5983384069
 H         -2.9881108847        7.4547331353        1.1582439351
 H         -0.3308060293        7.5477042255       -0.4964898603
 H         -0.4052666878        7.4910598388        1.2627759751
 H          0.5088925237        6.2677155432        0.3799598862
 H         -1.5738972829        6.9173224901       -2.2498038538
 H         -1.4798089843        5.6920970885       -4.3567313685
 H         -1.4299777476        3.2133388839       -4.3390141482
 H         -1.4632908136        2.0116195174       -2.2061505893
 H          0.6050629302        1.6100966425        0.0273624276
 H          2.3935379588        0.5325129373        0.0181065010
 H          4.3569077456        1.1317537176        0.5070343921
 H          6.6764552896        1.8420033795        0.4837103785
 H          8.4200006422        2.3639422624       -0.9726937457
 H         10.7615842624        3.0990736678       -0.9810981120
 H         12.5484221969        1.5602634874       -0.2519279077
 H         11.9686640056       -0.7186766158        0.4995510024
 H          9.6258197330       -1.4480904491        0.5339165417
 H          7.8738992300       -2.0254525998       -0.8833457800
 H          5.5269826716       -2.7499281759       -0.8542304443
 H         -0.2657902258       -4.5972958987       -0.6479183022
 H         -0.5011250646       -7.0467820665       -0.9240434617
 H          1.5071107569       -8.4770682752       -0.9527549974
 H          3.7426731331       -7.4680419090       -0.7037967022
 H          3.9640075237       -5.0163690045       -0.4230874162
 H         -1.4136718730       -2.1862031212       -0.0104056758
 H         -2.9903670858       -0.5670155548       -2.2241786914
 H         -4.0675206921       -1.1011987194       -4.3581192398
 H         -6.1979719248       -2.3689084316       -4.3781861719
 H         -7.2096689095       -3.0730364168       -2.2736367939
 H         -8.3693487508       -2.3702757936       -0.5307981769
 H         -7.7061574480       -0.9868810669        0.3397856292
 H         -8.2916254952       -2.3943228599        1.2272180949
 H         -5.4529305919       -4.6511288013        0.1902804429
 H         -6.9367295610       -4.5915354931        1.1421409614
 H         -7.0192362888       -4.5694518841       -0.6173036589
 H         -6.9832934892       -3.1340669909        2.8435483289
 H         -5.7850969981       -2.4864485740        4.8665215107
 H         -3.6556576611       -1.2289609458        4.6882249703
 H         -2.7701475190       -0.6444775068        2.4813471222
 H         -3.6518188399        1.4564350853        0.2420520658
 H         -1.5843476119        1.8561431505        2.5038033151
 H         -1.7254736443        2.9116485316        4.7087350288
 H         -1.8321099908        5.3826206117        4.8860343198
 H         -1.7874478280        6.7455205576        2.8642243686
  108
  -158.647480068500       9.732648926159337E-002 !
 C         -2.9315896021        6.8208535437        0.3763207841
 C         -1.6960634512        6.0005619344       -0.0380979056
 C         -0.5503154108        6.9398852054       -0.4583539826
 C         -2.0635958828        5.1295798602       -1.2219841698
 C         -2.5019591473        5.7199752424       -2.3989238174
 C         -2.8327457329        4.9731528606       -3.5147336179
 C         -2.7134929333        3.5940699148       -3.4691540175
 C         -2.2809579786        2.9812299282       -2.3142463206
 C         -1.9641457951        3.7326309050       -1.1756443236
 N         -1.5460398380        3.0880788611       -0.0295945002
 C         -1.4993437253        1.6636111331       -0.0219095546
 C         -0.2929643444        1.0192961073       -0.1820094806
 C         -0.2233216050       -0.3899598966       -0.1946879151
 C          1.0026318875       -1.1116111768       -0.3366250232
 C          2.2745689534       -0.5309094665       -0.2086207987
 C          3.3894308944       -1.3444159636       -0.3251773395
 C          4.7513881548       -0.8845397588       -0.1520245203
 C          5.0824151695        0.4362563659        0.1797762248
 C          6.3935382131        0.8140258111        0.3551895076
 C          7.4394330524       -0.1022094331        0.2184504335
 C          8.8296243838        0.3074482381        0.4313206472
 C          9.2799331432        1.5577787031        0.0065332389
 C         10.5882180993        1.9476167152        0.2182751480
 C         11.4740199785        1.0991305466        0.8619245266
 C         11.0405688983       -0.1457930849        1.2873626476
 C          9.7337830914       -0.5394935028        1.0727190444
 C          7.1131008224       -1.4189046096       -0.1170208865
 C          5.8057291875       -1.7991717721       -0.3025368653
 N          3.2162666640       -2.6668863946       -0.6017796966
 C          2.0037804359       -3.1748373667       -0.7182230444
 C          1.8631154186       -4.6010122783       -1.0209406421
 C          0.6018155473       -5.1526993407       -1.2318981977
 C          0.4706152177       -6.4953684983       -1.5280952187
 C          1.5953379289       -7.3005920954       -1.6172499784
 C          2.8533582083       -6.7580879080       -1.4082021241
 C          2.9887958023       -5.4155551309       -1.1115171794
 N          0.9187856560       -2.4502295806       -0.5791635505
 C         -1.4371826530       -1.1018961445       -0.0606241893
 C         -2.6298980404       -0.4413731214        0.1110876419
 N         -3.8374537131       -1.1844011470        0.2685496217
 C         -4.5998464140       -1.4628531464       -0.8452581409
 C         -4.1671938068       -1.0257700666       -2.1035470699
 C         -4.9090268444       -1.2822845292       -3.2348447680
 C         -6.0983527998       -1.9854674218       -3.1342401954
 C         -6.5247938563       -2.4256548472       -1.8945261450
 C         -5.7997333978       -2.1791751753       -0.7372395809
 C         -6.3112795119       -2.6923336740        0.5934690709
 C         -7.7061743648       -2.0935853279        0.8527339859
 C         -6.3973672348       -4.2283563257        0.5267552610
 C         -5.3964317690       -2.3074566389        1.7383149080
 C         -5.7215843033       -2.6824613509        3.0342566309
 C         -4.9235759622       -2.3525515073        4.1144558804
 C         -3.7628543427       -1.6257064481        3.9064195699
 C         -3.4127742874       -1.2435218574        2.6306081782
 C         -4.2166577554       -1.5787561425        1.5337003296
 C         -2.6892606238        0.9534689389        0.1409592805
 C         -1.1972322529        3.7780556031        1.1127058046
 C         -0.7997420316        3.0697340397        2.2537488812
 C         -0.4320989181        3.7308718789        3.4046316925
 C         -0.4582222714        5.1151295220        3.4429624602
 C         -0.8650491922        5.8174758326        2.3233952345
 C         -1.2419824413        5.1783028397        1.1506782647
 H         -3.7390916990        6.1525436608        0.6694413528
 H         -3.2791351582        7.4391054832       -0.4462449819
 H         -2.7011367424        7.4694354648        1.2164412637
 H         -0.8484864611        7.5616035869       -1.2974421005
 H         -0.2622078783        7.5902574635        0.3623740015
 H          0.3181864786        6.3551919110       -0.7553774014
 H         -2.5888026579        6.7942936519       -2.4535729172
 H         -3.1730898375        5.4643467771       -4.4131561845
 H         -2.9556770040        2.9951962921       -4.3339487570
 H         -2.1787885744        1.9088085012       -2.2846771720
 H          0.5955137937        1.6153138257       -0.3161814591
 H          2.3741967935        0.5182830347        0.0085843570
 H          4.3094100661        1.1777823069        0.3132896169
 H          6.6171005681        1.8339971928        0.6339271309
 H          8.6013819158        2.2184991989       -0.5131963753
 H         10.9207980439        2.9177994264       -0.1222564305
 H         12.4954340206        1.4063870048        1.0308141368
 H         11.7252372609       -0.8109012688        1.7939738973
 H          9.3995207531       -1.5036148434        1.4271313875
 H          7.9034201131       -2.1428546112       -0.2549105689
 H          5.5634946960       -2.8164094232       -0.5693366268
 H         -0.2634593287       -4.5106898502       -1.1645200937
 H         -0.5099973770       -6.9181111529       -1.6927693634
 H          1.4912252179       -8.3501255782       -1.8507150550
 H          3.7295835561       -7.3860751484       -1.4776793899
 H          3.9613752115       -4.9783143512       -0.9453373851
 H         -1.4088691730       -2.1793623990       -0.0781615532
 H         -3.2368996435       -0.4870393881       -2.1827551366
 H         -4.5585992721       -0.9357537824       -4.1951847019
 H         -6.6880050915       -2.1930834694       -4.0137252126
 H         -7.4501519605       -2.9778110988       -1.8339125837
 H         -8.3981171130       -2.3660163606        0.0611638850
 H         -7.6413811010       -1.0080375556        0.8945097655
 H         -8.1114767486       -2.4496126266        1.7953994678
 H         -7.0588369893       -4.5439018869       -0.2750853728
 H         -5.4096798957       -4.6465510591        0.3428860255
 H         -6.7739727446       -4.6352842300        1.4608552625
 H         -6.6228133915       -3.2485059731        3.2132591644
 H         -5.2064995284       -2.6597143967        5.1093929064
 H         -3.1291786921       -1.3580139213        4.7382311791
 H         -2.5073108356       -0.6812624401        2.4686068927
 H         -3.6279776723        1.4671576260        0.2718538497
 H         -0.7819848071        1.9920898684        2.2270318307
 H         -0.1256204183        3.1655246521        4.2716330683
 H         -0.1693361928        5.6440428630        4.3379922963
 H         -0.8881717558        6.8953502795        2.3715367540
  108
  -158.647130621700       6.724135057350582E-002 !
 C         -2.9332857397        6.8036087142        0.4384197831
 C         -1.6627232959        5.9582191204        0.6431148734
 C         -0.4729053639        6.8665298713        1.0044217556
 C         -1.3503624079        5.2359870588       -0.6515863991
 C         -1.1044848086        5.9693119682       -1.8037827614
 C         -0.8322323913        5.3612551701       -3.0155409057
 C         -0.8131499968        3.9785057328       -3.0929367981
 C         -1.0525909930        3.2250699028       -1.9651992983
 C         -1.3109018380        3.8373378170       -0.7322534886
 N         -1.5305459570        3.0561526440        0.3832506584
 C         -1.4914210265        1.6370115079        0.2560115699
 C         -0.2766313032        0.9900215496        0.2127640029
 C         -0.2098409643       -0.4149443827        0.0945989339
 C          1.0185064923       -1.1400175728        0.0121134252
 C          2.2853526247       -0.5391312139       -0.0801158276
 C          3.3999753012       -1.3534370813       -0.1830049545
 C          4.7557459965       -0.8596343025       -0.3113466537
 C          5.0864110539        0.5016615804       -0.2826566542
 C          6.3909961696        0.9157318883       -0.4224896780
 C          7.4313566091       -0.0018295450       -0.5877073526
 C          8.8175190785        0.4486421867       -0.7347391409
 C          9.1219571387        1.5950831598       -1.4691128910
 C         10.4295318361        2.0188504716       -1.6083263757
 C         11.4603406918        1.3096420302       -1.0139703263
 C         11.1718498819        0.1702895136       -0.2808218535
 C          9.8654078994       -0.2577839334       -0.1439540597
 C          7.1058830226       -1.3605137430       -0.6077441292
 C          5.8034618850       -1.7786389498       -0.4771166572
 N          3.2358668409       -2.7050926461       -0.1778361971
 C          2.0286162388       -3.2328274962       -0.0904581570
 C          1.8986596163       -4.6918927811       -0.0912096776
 C          0.6432668812       -5.2875261531        0.0002863027
 C          0.5245754584       -6.6636922901        0.0016990171
 C          1.6559803918       -7.4592473689       -0.0880837571
 C          2.9084001115       -6.8731813624       -0.1793576047
 C          3.0311039716       -5.4971846433       -0.1809447456
 N          0.9436831670       -2.5013597715       -0.0021802903
 C         -1.4349636845       -1.1201808063        0.0556959266
 C         -2.6382186088       -0.4572215930        0.0931773812
 N         -3.8580833909       -1.1925062422        0.0363092832
 C         -4.3012324882       -1.6623532820       -1.1826863144
 C         -3.5461666178       -1.4144538913       -2.3361823333
 C         -3.9566711515       -1.8818510115       -3.5646829486
 C         -5.1341224501       -2.6038351494       -3.6699114944
 C         -5.8910123893       -2.8363028823       -2.5363320247
 C         -5.5037236035       -2.3753358669       -1.2859471117
 C         -6.3852077650       -2.6440998549       -0.0835194114
 C         -7.7661859172       -2.0109016823       -0.3352835979
 C         -6.5239480805       -4.1669781319        0.0981108368
 C         -5.8031168266       -2.0595658670        1.1868592041
 C         -6.4869622869       -2.2043515723        2.3857471976
 C         -5.9904725037       -1.7089760268        3.5774833904
 C         -4.7656558951       -1.0621889867        3.5868181605
 C         -4.0646630515       -0.9057283361        2.4121426711
 C         -4.5756122466       -1.3831778859        1.1985647943
 C         -2.6950859706        0.9356253521        0.1826030683
 C         -1.8073306117        3.6052901614        1.6183084968
 C         -1.9874626292        2.7643037496        2.7235430818
 C         -2.2819680152        3.2800737140        3.9658678272
 C         -2.3949575878        4.6501753631        4.1341201334
 C         -2.1941464208        5.4853841370        3.0505143455
 C         -1.8965052397        4.9934192051        1.7874192565
 H         -3.1863169425        7.3474121807        1.3438945001
 H         -3.7700495434        6.1575949475        0.1797867478
 H         -2.7942730684        7.5226588765       -0.3636365621
 H         -0.2802021681        7.5856145155        0.2135738745
 H         -0.6682753597        7.4133301376        1.9223051708
 H          0.4222253098        6.2642022101        1.1473535272
 H         -1.1258645226        7.0474536570       -1.7613710467
 H         -0.6426625087        5.9617688160       -3.8917003079
 H         -0.6124339914        3.4861867798       -4.0323766157
 H         -1.0416293632        2.1489047870       -2.0286780299
 H          0.6216834665        1.5824017876        0.2777379030
 H          2.3813323819        0.5322924437       -0.0919226403
 H          4.3197635310        1.2487586818       -0.1437340644
 H          6.6187320877        1.9712991250       -0.3779664351
 H          8.3265252543        2.1433816250       -1.9526399544
 H         10.6476138945        2.9057734953       -2.1859350311
 H         12.4819887090        1.6428125183       -1.1216599529
 H         11.9707002354       -0.3854482818        0.1889393262
 H          9.6480163778       -1.1367059099        0.4451036364
 H          7.8881274335       -2.0913080589       -0.7545943014
 H          5.5596775669       -2.8295337523       -0.5057032905
 H         -0.2284016792       -4.6547595538        0.0710674846
 H         -0.4517345727       -7.1207183895        0.0737549489
 H          1.5614439596       -8.5353112582       -0.0857939921
 H          3.7902009768       -7.4934884813       -0.2492335582
 H          3.9990484700       -5.0253771773       -0.2509138880
 H         -1.4082498226       -2.1952029703       -0.0174345561
 H         -2.6304452644       -0.8512990021       -2.2574629895
 H         -3.3576633218       -1.6823094189       -4.4401497980
 H         -5.4636644964       -2.9784025319       -4.6266386628
 H         -6.8101883216       -3.3930786677       -2.6356631778
 H         -8.2207833452       -2.4182596814       -1.2334270005
 H         -7.6629364402       -0.9348869020       -0.4601854417
 H         -8.4357843273       -2.1970146558        0.4992169315
 H         -6.9566098492       -4.6243086532       -0.7868813281
 H         -5.5448071454       -4.6091559512        0.2704244198
 H         -7.1595679261       -4.3986583637        0.9477866905
 H         -7.4354485484       -2.7190962993        2.3971699588
 H         -6.5507802626       -1.8349271035        4.4909581808
 H         -4.3550341835       -0.6820579406        4.5098771633
 H         -3.1051280463       -0.4158162451        2.4238903356
 H         -3.6405541519        1.4526533052        0.2132046357
 H         -1.8858949135        1.6989324358        2.5979930111
 H         -2.4202932525        2.6129225488        4.8031278245
 H         -2.6288157461        5.0661606663        5.1018470390
 H         -2.2717629930        6.5513466270        3.2001869085
