  110
       -170.12278610
 C          2.9246824238       -3.6830482940       -0.1691409108
 C          1.9396011922       -3.4562388660       -1.1164922500
 C          1.2189475862       -2.2771963912       -1.1039079183
 C          1.4747345739       -1.3002683663       -0.1439163204
 C          0.7257810172       -0.0290926073       -0.1314251296
 C         -0.6532534825       -0.0467607430       -0.0318087242
 C         -1.3875929798       -1.3293709536       -0.0150871243
 C         -2.3693016232       -1.5863757608       -0.9694688832
 C         -3.0856371724       -2.7680788247       -0.9414366821
 C         -2.8308789150       -3.7132929482        0.0387485183
 C         -1.8487863293       -3.4721818468        0.9848752767
 C         -1.1322329973       -2.2903582401        0.9592374187
 C         -1.3861621629        1.1651141025        0.0427841608
 C         -2.8391364044        1.1248695249        0.1366600818
 C         -3.6481978117        1.8655540827       -0.7339345031
 C         -5.0153708211        1.7075861141       -0.7332995506
 C         -5.6322502601        0.8040673291        0.1359187461
 C         -7.0629265347        0.5193212111        0.0528263060
 C         -8.0283571849        1.5134440401       -0.0838628799
 C         -9.3838011105        1.2154125168       -0.1493153082
 C         -9.8377015308       -0.0907661342       -0.1001379169
 C         -8.9020061386       -1.1119681849        0.0080233913
 C         -7.5253241768       -0.8009284139        0.0858712118
 N         -6.8069472849       -1.9677469990        0.1426534610
 C         -7.6683576931       -3.0321817078        0.1079906781
 C         -7.3947729184       -4.3913094539        0.1396160191
 C         -8.4661309226       -5.2626959728        0.0994921871
 C         -9.7777340318       -4.7960934621        0.0293778888
 C        -10.0554183912       -3.4432697360       -0.0046315950
 C         -8.9962100976       -2.5464274127        0.0348791748
 C         -4.8333835701        0.1331662698        1.0681124661
 C         -3.4692136145        0.2917008105        1.0707210045
 C         -0.6892554712        2.3873880448        0.0100758247
 C         -1.4291891556        3.6630599116        0.0661479737
 C         -2.2633923167        3.9588228137        1.1442985721
 C         -2.9199836071        5.1738673103        1.1600181393
 C         -2.7321414022        6.0543459070        0.1040232149
 C         -1.8905274709        5.6641749272       -0.9243139104
 N         -1.2611338683        4.5052829088       -0.9480229788
 C          0.6934978664        2.4160864280       -0.0648962104
 C          1.3572292053        3.7236715158       -0.1396156929
 C          2.2513201509        4.0218832723       -1.1721176115
 C          2.8067478063        5.2837986495       -1.2279660057
 C          2.4634170507        6.2164028928       -0.2572748957
 C          1.5706045128        5.8263372777        0.7271921124
 N          1.0363375996        4.6231144871        0.7889872833
 C          1.4386854852        1.2075507252       -0.1437867270
 C          2.8685434384        1.2069982417       -0.2117576763
 C          3.6687199187        2.0541310150        0.6022177079
 C          5.0195909469        1.8949834930        0.6793161277
 C          5.6893570323        0.8753641056       -0.0481910857
 C          7.0647789722        0.5604051020        0.1697635078
 C          8.0353020573        1.5266290841        0.5298114029
 C          9.3666536649        1.2075050403        0.6836889677
 C          9.8342619509       -0.0965651247        0.5271315877
 C          8.9084857144       -1.0912306948        0.2244485147
 C          7.5466619033       -0.7639377010        0.0536448334
 N          6.8364167296       -1.9172394730       -0.1426826783
 C          7.6866107271       -2.9895450108       -0.1260178359
 C          7.4109283343       -4.3391117149       -0.2852758423
 C          8.4739468743       -5.2201432729       -0.2328748535
 C          9.7778202015       -4.7688010296       -0.0252866790
 C         10.0569574655       -3.4254753128        0.1381011150
 C          9.0067448094       -2.5180733818        0.0877199000
 C          4.9102401435        0.1479276348       -0.9880160179
 C          3.5624903187        0.3045509363       -1.0639337821
 C          2.4584095567       -1.5452514297        0.8141860758
 C          3.1772186425       -2.7254127551        0.7998476771
 H          3.4871708701       -4.6054395546       -0.1819410551
 H          1.7354354508       -4.2008819433       -1.8720488927
 H          0.4634454489       -2.0987233638       -1.8550950376
 H         -2.5672799861       -0.8537433892       -1.7386696808
 H         -3.8448515102       -2.9528180723       -1.6889957452
 H         -3.3916463961       -4.6365023045        0.0629601219
 H         -1.6432389059       -4.2071965785        1.7494710275
 H         -0.3769623788       -2.1007384796        1.7081996026
 H         -3.1841223533        2.5223130651       -1.4549764150
 H         -5.6191439084        2.2462672549       -1.4491765165
 H         -7.7094101751        2.5450986514       -0.1122220958
 H        -10.0944957269        2.0238498784       -0.2385230876
 H        -10.8921452196       -0.3143140632       -0.1534613168
 H         -5.8016482637       -2.0269900298        0.1480458008
 H         -6.3781667307       -4.7517970600        0.1943092950
 H         -8.2856481808       -6.3273469828        0.1222813670
 H        -10.5881495807       -5.5092856422        0.0009978786
 H        -11.0734185430       -3.0879737094       -0.0594958580
 H         -5.3008212823       -0.4967804509        1.8122771867
 H         -2.8718609684       -0.2226720965        1.8087849855
 H         -2.3752723108        3.2509034422        1.9506350187
 H         -3.5690132155        5.4348926106        1.9839274287
 H         -3.2246430027        7.0140741127        0.0797316803
 H         -1.7068244283        6.3078289898       -1.7758008521
 H          2.4786555543        3.2771803704       -1.9190422353
 H          3.4959265348        5.5438101859       -2.0188798121
 H          2.8768900982        7.2127992329       -0.2649883874
 H          1.2664270274        6.5079179078        1.5121315126
 H          3.1786274170        2.7723114464        1.2422333509
 H          5.5870871867        2.4951390581        1.3745764652
 H          7.7216955319        2.5538011659        0.6353826285
 H         10.0692945518        1.9911955901        0.9277591574
 H         10.8783883199       -0.3321058715        0.6572537020
 H          5.8320710508       -1.9711427723       -0.2097818052
 H          6.4004296495       -4.6841165135       -0.4468310557
 H          8.2947559271       -6.2780102968       -0.3539080960
 H         10.5818814477       -5.4889480180        0.0089041564
 H         11.0687447305       -3.0861483085        0.3003839201
 H          5.4146153631       -0.4883060529       -1.7021371708
 H          3.0028345453       -0.2266988757       -1.8194125611
 H          2.6509294140       -0.8060596486        1.5785323933
 H          3.9353273865       -2.9007899051        1.5510008832
