90
 energy: -145.291160285312 gnorm: 0.000075094725 xtb: 6.7.1 (edcfbbe)
C           -9.96939203930910        3.36965308374583        1.20633284338672
C           -8.65695829862340        3.32679508690398        1.67144160474574
C           -7.78119880037663        2.33551125620911        1.27166384899319
C           -8.24773198422410        1.38096069426068        0.37876838426087
C           -9.58567995487554        1.40211344241434       -0.07876429404223
C          -10.44679358950246        2.40809212899728        0.33760689617753
C           -9.74188699723508        0.25951203956775       -0.93549725298150
C          -10.80224344623128       -0.23786194555442       -1.68058637272126
C          -10.60363729578397       -1.37746968575036       -2.43501476486839
C           -9.36282403291511       -2.00993881210566       -2.46430202164549
C           -8.29249908230898       -1.53378699483948       -1.73142598341917
C           -8.49277292170492       -0.40321357797000       -0.95179749167998
N           -7.60002774430524        0.28478541239032       -0.15452900701886
C           -6.26058795695111       -0.06656544275398        0.05983941290998
C           -5.25816580147707        0.89770191025995       -0.11561592032893
C           -3.92693200257871        0.58919011139663        0.06909921473642
C           -3.60351462735822       -0.70976329935392        0.43292448526357
C           -4.60579064059305       -1.69291869067080        0.61158593114141
C           -5.93942799376534       -1.36685856902092        0.43176208264403
C           -3.92699302572174       -2.90512308337580        0.97868819917690
C           -4.36419296823988       -4.18359218234832        1.29418632899281
C           -3.42567749888831       -5.13588291283950        1.64293487868714
C           -2.07023988122807       -4.81974349392403        1.69644941225438
C           -1.61091014803241       -3.55387497111362        1.38188914902342
C           -2.54474352621756       -2.60068059700486        1.00224882894670
N           -2.36404898967622       -1.27239265129710        0.65907906787223
C           -1.15558996966112       -0.62535879560013        0.47388980062745
C           -0.10483317029128       -1.22810690201752       -0.18099301220552
N            1.04215029066450       -0.59657193965435       -0.44434337676934
C            1.14855449983428        0.70236869175129       -0.03165316169092
N            2.34848204649414        1.35150794864462       -0.25088998361026
C            2.52431954378375        2.69262645783196       -0.54986509301971
C            1.58409774192860        3.67722629722996       -0.81823423210842
C            2.04198011864149        4.94998205917609       -1.10669877635751
C            3.40274841668049        5.24445688287154       -1.13891259353749
C            4.34609920517523        4.26120286741240       -0.91099853919530
C            3.90959585614127        2.97575338769474       -0.62420643544335
C            4.59430406194288        1.73640723941923       -0.38198852159642
C            5.93198153842793        1.37917955510635       -0.36465677116430
C            6.26129736211565        0.05245315239767       -0.11377036508481
N            7.60592497949491       -0.34114573719986       -0.09590425531000
C            8.61909918762739        0.27503009394061        0.61030656601821
C            8.55944022155375        1.35176280678928        1.48388598309176
C            9.73433632720932        1.75918935168354        2.08647754997056
C           10.94215990170770        1.11095461551563        1.83845448850664
C           11.00352345989037        0.02371617766937        0.98900670512190
C            9.83639562027999       -0.40402594261192        0.37130672730452
C            9.53258328486172       -1.47948356275344       -0.53152845012692
C           10.30128621468739       -2.46420591270019       -1.13684626967402
C            9.68285561268099       -3.35123462959135       -1.99588832499691
C            8.31962734464282       -3.25470939013494       -2.26586030254990
C            7.53369737000655       -2.28345957110055       -1.67563548236611
C            8.14466623471199       -1.40493494385022       -0.79188894847908
C            5.26135361497618       -0.90201003800403        0.12014480598496
C            3.92548020244571       -0.56095510089280        0.09967545015858
C            3.59315325442002        0.76043742692952       -0.16162066634777
C            0.10359660605608        1.29772613280693        0.63969893678824
N           -1.04779497805988        0.66940683949407        0.89374664596229
H          -10.62192826448019        4.16263540838330        1.54013886951065
H           -8.31706123660994        4.08340883065598        2.36314932726060
H           -6.77156816401723        2.30018707552828        1.65188522375003
H          -11.46869632899197        2.43155304153235       -0.00972591984368
H          -11.75909562736483        0.26191894005489       -1.67113510670850
H          -11.41605593079055       -1.78220574098449       -3.02000121968917
H           -9.23296376275356       -2.89001386996730       -3.07678895053391
H           -7.32952774760480       -2.01979486781278       -1.77615547064329
H           -5.54262000722032        1.89209655400990       -0.42405218895783
H           -3.15543856374384        1.33039610246382       -0.06509857575387
H           -6.71725549398036       -2.09748074773494        0.59150386656185
H           -5.41662273393005       -4.42252293222053        1.27377432258238
H           -3.74445489098756       -6.13683957922044        1.89183630725708
H           -1.36226819596965       -5.57820447965364        1.99517983988475
H           -0.56107902890563       -3.31457798469506        1.45043913870215
H           -0.21149386566248       -2.21756352424441       -0.59844723756378
H            0.52762990206667        3.45989004679205       -0.82718816063278
H            1.32714286061535        5.73121162983315       -1.31742831546402
H            3.72032965943456        6.25181378096169       -1.36206689329282
H            5.40156025688616        4.48142439309021       -0.96182442538598
H            6.70409928561528        2.10548928163012       -0.56631132962409
H            7.62491683260325        1.84858513270364        1.69690262491860
H            9.71487890052722        2.59677608809887        2.76808702873752
H           11.83911621776368        1.46148938654058        2.32696489151585
H           11.93666582191117       -0.48852913311688        0.80927810428220
H           11.36103185559541       -2.52809653949974       -0.94108720005955
H           10.26214009104779       -4.12623071355674       -2.47533432578289
H            7.86719932243293       -3.95221260981076       -2.95525099703114
H            6.48201085879645       -2.20502038507198       -1.90570113624156
H            5.55425223687227       -1.91773507232568        0.33783805585414
H            3.15659752147329       -1.29631930586736        0.27421581593740
H            0.21498761614671        2.27836108158223        1.07564754743938
