  90
       -145.36457783
 C         -9.6089989295        3.8331869356       -0.6319032472
 C         -8.4017332277        3.8103532785        0.0633226714
 C         -7.5698580341        2.7079567796        0.0293953041
 C         -7.9696500965        1.6179887263       -0.7308591679
 C         -9.2043151051        1.6226330453       -1.4199649629
 C        -10.0234148035        2.7429554600       -1.3701153491
 C         -9.3221611296        0.3398379955       -2.0540221948
 C        -10.2875527038       -0.2393708918       -2.8670037452
 C        -10.0750067780       -1.5193875050       -3.3375797046
 C         -8.9108261120       -2.2153285896       -3.0192050148
 C         -7.9363244203       -1.6609968464       -2.2119787862
 C         -8.1547377106       -0.3833427115       -1.7166100945
 N         -7.3466890111        0.4007924302       -0.9186743368
 C         -6.1018721336        0.0264072421       -0.3907112726
 C         -4.9986208352        0.8698304241       -0.5652570206
 C         -3.7578400123        0.5516287571       -0.0508387117
 C         -3.6257469947       -0.6437273228        0.6381144829
 C         -4.7257166705       -1.5119666897        0.8013992936
 C         -5.9710304793       -1.1729771456        0.2953998298
 C         -4.2493769687       -2.6494248485        1.5403695276
 C         -4.8752715263       -3.7902193632        2.0224658968
 C         -4.1315251448       -4.6903687845        2.7596006208
 C         -2.7895812769       -4.4462528663        3.0353116556
 C         -2.1456729715       -3.3174618075        2.5610629896
 C         -2.8753123592       -2.4289438747        1.7850228440
 N         -2.4992094497       -1.2194259744        1.2141890482
 C         -1.2291396963       -0.6767442756        1.1925791700
 C         -0.0690938542       -1.4563694482        1.0983484480
 N          1.1300766960       -0.9171105453        1.1475746584
 C          1.2265361101        0.4093618587        1.2663027393
 N          2.4899299657        0.9595436971        1.3645627645
 C          2.8269550453        2.1223621144        2.0460636976
 C          2.0700548829        2.9050449083        2.9055849813
 C          2.6754215414        4.0062064821        3.4836833018
 C          4.0061570476        4.3238193119        3.2290058835
 C          4.7777814134        3.5256666256        2.4078760821
 C          4.1905896087        2.4139647842        1.8203066594
 C          4.7014448337        1.3688096317        0.9757112594
 C          5.9524944257        1.1269755482        0.4305484493
 C          6.1211831675        0.0019814253       -0.3644602283
 N          7.3726428599       -0.2647119603       -0.9410593191
 C          8.0627856251       -1.4568676278       -0.8615519299
 C          7.7363055076       -2.6230903389       -0.1841567407
 C          8.6281284012       -3.6762605309       -0.2474706020
 C          9.8218788158       -3.5776399184       -0.9592417441
 C         10.1622376642       -2.4126396664       -1.6166653586
 C          9.2824032317       -1.3393370082       -1.5674004106
 C          9.3183764393       -0.0063105846       -2.0996546750
 C         10.2338384590        0.6871391429       -2.8804041692
 C          9.9440296326        1.9872485466       -3.2424983363
 C          8.7529588877        2.5924578550       -2.8471250452
 C          7.8266703152        1.9235812735       -2.0704639842
 C          8.1217403300        0.6233440156       -1.6857800653
 C          5.0512510774       -0.8682741738       -0.6030578761
 C          3.8037344580       -0.6457217164       -0.0546726983
 C          3.6325974902        0.4788687723        0.7369584289
 C          0.0679095165        1.1955122977        1.2202607315
 N         -1.1302909000        0.6553148102        1.1974028508
 H        -10.2298673129        4.7154338583       -0.5819971851
 H         -8.1115108137        4.6727656110        0.6453928713
 H         -6.6447130180        2.6930405146        0.5856282941
 H        -10.9664317012        2.7541286982       -1.8957515987
 H        -11.1822202591        0.3062342863       -3.1263626477
 H        -10.8139798234       -1.9889031123       -3.9696807925
 H         -8.7652653018       -3.2096722021       -3.4152931900
 H         -7.0298884648       -2.2019046927       -1.9848538258
 H         -5.1273320770        1.7837340381       -1.1248930142
 H         -2.9173327303        1.2126722261       -0.1801346767
 H         -6.8233966312       -1.8183982696        0.4400501142
 H         -5.9236899685       -3.9596671281        1.8306146906
 H         -4.5964422034       -5.5858749623        3.1431864520
 H         -2.2369237170       -5.1504331068        3.6389554430
 H         -1.1137357240       -3.1347146951        2.8167379768
 H         -0.1032464379       -2.5241482778        0.9383978138
 H          1.0470111120        2.6600618931        3.1448354135
 H          2.1015152138        4.6287931498        4.1535721710
 H          4.4406911492        5.1949590672        3.6953090738
 H          5.8183060384        3.7508028844        2.2310637065
 H          6.7809320066        1.7901699161        0.6252402241
 H          6.8212894640       -2.7024270042        0.3833610337
 H          8.3965305046       -4.5958746017        0.2696527665
 H         10.4911549699       -4.4247207322       -0.9865645464
 H         11.0939710458       -2.3310601923       -2.1560244617
 H         11.1500603357        0.2130871497       -3.1988666436
 H         10.6433637355        2.5448609352       -3.8476325434
 H          8.5478982901        3.6066767744       -3.1572193373
 H          6.8990529830        2.3953463552       -1.7825030259
 H          5.2112204217       -1.7246798368       -1.2404090362
 H          2.9867998365       -1.3244083951       -0.2357690232
 H          0.1051841253        2.2734024388        1.1577552182
