90
 energy: -145.364691888274 gnorm: 0.000053681239 xtb: 6.7.1 (edcfbbe)
C           -9.64610467976101        3.81022322037565       -0.60686997209697
C           -8.43705077553840        3.79429606697054        0.08545222584741
C           -7.59500064452080        2.69990513855247        0.04276315652392
C           -7.98678649980444        1.61074783783752       -0.72279278103714
C           -9.22321329855607        1.60814763385519       -1.40891763823729
C          -10.05247154919512        2.72059073743337       -1.35042588264719
C           -9.33093353416132        0.32790250154584       -2.04992641063936
C          -10.29299933519814       -0.25550147960792       -2.86389005324265
C          -10.07049683440998       -1.53144153702856       -3.34121351416442
C           -8.89978863305131       -2.21912451775959       -3.02846401198509
C           -7.92833313222302       -1.66037934327437       -2.22054616777780
C           -8.15660834388393       -0.38693517280543       -1.71856292589427
N           -7.35356974063139        0.40010745488176       -0.91842711881938
C           -6.10599569720784        0.03190835577602       -0.39252891588040
C           -5.00803967538519        0.88301613152990       -0.56339199140162
C           -3.76501393088666        0.56964720215422       -0.05121630495640
C           -3.62552476051248       -0.62852506735944        0.63131047899949
C           -4.72015478232642       -1.50425051040421        0.79096043644289
C           -5.96769155486925       -1.16997316885554        0.28766511636043
C           -4.23638731392097       -2.64312971791221        1.52283858376943
C           -4.85454443541908       -3.79078717501531        1.99868964596255
C           -4.10405505987623       -4.69123454546883        2.72853712732639
C           -2.76320400878749       -4.44079241866849        3.00377889053414
C           -2.12713456476020       -3.30481052893163        2.53633189590859
C           -2.86343331252451       -2.41586603973366        1.76704209318405
N           -2.49527235923895       -1.20080058862610        1.20289235039010
C           -1.22708523130462       -0.65365973257510        1.18290089949721
C           -0.06647546226133       -1.43127910238010        1.08069407868708
N            1.13186000402926       -0.89128156362530        1.13491792710671
C            1.22762302057479        0.43429806148837        1.26498434705943
N            2.49210089800559        0.98102351336289        1.36548575382129
C            2.83538036230854        2.14196544891703        2.04717043079595
C            2.08271149045636        2.93013607371680        2.90537841768203
C            2.69450229183181        4.02786734636698        3.48339148023174
C            4.02741660114108        4.33706130903754        3.22992007216798
C            4.79486074660561        3.53322621935846        2.41037327787652
C            4.20123832641548        2.42482474236828        1.82315362178178
C            4.70693713743600        1.37623062504889        0.97966524880285
C            5.95734243838343        1.12639013591710        0.43653672620638
C            6.11993169466674        0.00063265290793       -0.35873193893847
N            7.37015157059571       -0.27348298549956       -0.93412255209145
C            8.05280012120762       -1.47010976628517       -0.85665777107992
C            7.71713026862226       -2.63701768459550       -0.18488472682026
C            8.60208361851866       -3.69583588047558       -0.25074703500354
C            9.79831955058645       -3.60198635821307       -0.95904728947056
C           10.14786524006026       -2.43648475690188       -1.61081204797780
C            9.27477609336269       -1.35775982688283       -1.55944615522788
C            9.31989799538141       -0.02345000409488       -2.08785283195407
C           10.24077881996625        0.66681925100856       -2.86509030580665
C            9.95837708890347        1.96904762105565       -3.22548171827425
C            8.76923479578211        2.57951995230348       -2.83222940512664
C            7.83796581947085        1.91414074752745       -2.05855570470368
C            8.12594708239665        0.61197124960352       -1.67503737813286
C            5.04479715505152       -0.86241006455501       -0.59942146763502
C            3.79813472048478       -0.63211290033043       -0.05261163457012
C            3.63285491947734        0.49327445619580        0.73920394809215
C            0.06818106635483        1.21968649438184        1.22538536877101
N           -1.12976252498198        0.67835070589874        1.19856122378770
H          -10.27474724548427        4.68651233331338       -0.55049534210792
H           -8.15317559928145        4.65599300991937        0.67169524081272
H           -6.66829423703061        2.69013413790510        0.59655803166849
H          -10.99647441541464        2.72652995665469       -1.87432034794507
H          -11.19312785362130        0.28358149553450       -3.11842173610057
H          -10.80716615899636       -2.00443597312845       -3.97352359785767
H           -8.74678456697041       -3.21044787715838       -3.42934367656256
H           -7.01670717255249       -2.19454984306122       -1.99806739613349
H           -5.14280987085212        1.79914258820189       -1.11804271898157
H           -2.92828625742404        1.23627942923899       -0.17719621155443
H           -6.81615459299945       -1.82109879114388        0.42948196106693
H           -5.90217383643688       -3.96553092469514        1.80729537865164
H           -4.56275240127207       -5.59222571380821        3.10672090456123
H           -2.20520845874589       -5.14554863853709        3.60187586401986
H           -1.09608241757002       -3.11712710657812        2.79198375311484
H           -0.09973849688857       -2.49751188640807        0.91010460717824
H            1.05798220131107        2.69194717188005        3.14419035173579
H            2.12379221418490        4.65461424206051        4.15214136034702
H            4.46690636539105        5.20601015548230        3.69572806020968
H            5.83701142464828        3.75151488940667        2.23448249719137
H            6.78974757241012        1.78417462298293        0.63266327893859
H            6.80023669165264       -2.71292171842326        0.38009296069724
H            8.36293181475016       -4.61628122360312        0.26146833428052
H           10.46214235936718       -4.45330201978384       -0.98831469864220
H           11.08153045579916       -2.35866851815612       -2.14735105162864
H           11.15545078591818        0.18881661258436       -3.18214455125021
H           10.66194039356831        2.52414562627709       -3.82806440276930
H            8.56942607416099        3.59485735585689       -3.14209404681531
H            6.91165415663838        2.38967043427334       -1.77252457243783
H            5.19987739215390       -1.71938561559337       -1.23716755824527
H            2.97750061332509       -1.30571802044342       -0.23515938862047
H            0.10402383237968        2.29807138532897        1.17150196479668
