90
 energy: -145.364702976166 gnorm: 0.000053267995 xtb: 6.7.1 (edcfbbe)
C           -9.77231756866488        3.66165092755013       -0.63719453220835
C           -8.56215721839291        3.69590912964237        0.05259640714663
C           -7.69135835601427        2.62355448400188        0.03616748807756
C           -8.05587600735875        1.50486129547901       -0.69959563754259
C           -9.29238059008421        1.45167419494137       -1.38354026333325
C          -10.15060916847079        2.54305395364876       -1.35204531265667
C           -9.36672452882269        0.15252749041539       -1.99046449387712
C          -10.31251919476619       -0.47722777238410       -2.78882846254909
C          -10.05650069382752       -1.75928408839541       -3.23180365301272
C           -8.86919260410655       -2.40839158151866       -2.89966015975241
C           -7.91320747254136       -1.80323935240173       -2.10688397522437
C           -8.17433305062899       -0.52257461567480       -1.64070276583934
N           -7.39175146734114        0.30638833392363       -0.86329996881400
C           -6.13275965745457       -0.01371677261840       -0.33270721392917
C           -5.05589229827902        0.85522055858857       -0.54250676156511
C           -3.80197727853290        0.58761612033235       -0.03075292204958
C           -3.63078577883670       -0.58143562816633        0.69380716894490
C           -4.70535275272464       -1.47294974060141        0.89727242075202
C           -5.96315769144519       -1.18603869713658        0.39044637442575
C           -4.19313043258929       -2.56972658107026        1.67281577072122
C           -4.78432771581522       -3.70823687222468        2.20193289234259
C           -4.01141617611015       -4.55945142411368        2.96663688211642
C           -2.67544095557304       -4.26785610833351        3.22439795268255
C           -2.06604233753999       -3.14052251931484        2.70357497186333
C           -2.82409401127720       -2.30324996168268        1.89817217528882
N           -2.48440521489084       -1.10670987500293        1.27868191990624
C           -1.22314703402030       -0.54858855384315        1.20757767790900
C           -0.05630146723172       -1.32065571426338        1.13623448637020
N            1.13697083239505       -0.76798428035681        1.14888399774460
C            1.22273794584886        0.56378679810514        1.20001555123866
N            2.48396580518228        1.12290032042733        1.26387863302108
C            2.82370699863469        2.32653235251635        1.86940416969494
C            2.06521994212737        3.17388708781818        2.66376980443288
C            2.67479128791161        4.30687255447729        3.17196049645275
C            4.01134225148123        4.59435172786485        2.91255774088272
C            4.78453755543183        3.73369347787712        2.15879367128853
C            4.19313473905594        2.58949816680037        1.64231612901693
C            4.70539101050397        1.48347179736626        0.88005419818535
C            5.96333892566060        1.19011542034623        0.37729628716198
C            6.13277310871223        0.00942841162653       -0.33214462010943
N            7.39189571906732       -0.31712840747620       -0.85853097486443
C            8.05616916148967       -1.51337394446986       -0.67998797456610
C            7.69158632545934       -2.62301708079501        0.06931469729846
C            8.56261573760580       -3.69489081547031        0.09925876396459
C            9.77302022508243       -3.66884765444455       -0.59047005044530
C           10.15128473918969       -2.55909601510865       -1.31899626131235
C            9.29283803994421       -1.46837052658761       -1.36423455264346
C            9.36706653373831       -0.17678085599939       -1.98710107445552
C           10.31284089979457        0.44329150180951       -2.79303790271391
C           10.05662265457251        1.71974700660004       -3.25179613098284
C            8.86918492125692        2.37271049077050       -2.92776199162273
C            7.91321836045013        1.77718254402911       -2.12771212250741
C            8.17449313482946        0.50235762168807       -1.64588027246419
C            5.05567030227096       -0.86146240487013       -0.53240612654669
C            3.80156769710285       -0.58731652578819       -0.02458297733119
C            3.63051670742102        0.59017664694407        0.68621222301671
C            0.05593073948933        1.33481379997424        1.11819393928561
N           -1.13734905778698        0.78236413674745        1.13837844115507
H          -10.42419426043921        4.52190812904796       -0.60157644690850
H           -8.30056684620471        4.57968213799712        0.61589415899425
H           -6.76333738742420        2.65237795151168        0.58717026399691
H          -11.09511346628215        2.51072494308858       -1.87407566452390
H          -11.22598580760221        0.03136004710743       -3.05819246787865
H          -10.77981503846277       -2.26766345150199       -3.85196872037222
H           -8.69067076140141       -3.40609499437706       -3.27324229738387
H           -6.98866362193263       -2.30762490978798       -1.86859588496433
H           -5.21617712542623        1.74844638141029       -1.12699815338311
H           -2.98090753958757        1.26686908511621       -0.18795679276402
H           -6.79592664779844       -1.85017872287249        0.56205210133837
H           -5.82885029403494       -3.91340447932878        2.02432801987955
H           -4.44883838629903       -5.45252046199455        3.38649487568990
H           -2.10007256496169       -4.93252967279365        3.85122618791451
H           -1.03879627746077       -2.91884741804695        2.94698343098402
H           -0.08101429452700       -2.39479244131506        1.02409672637143
H            1.03747772417093        2.95589159431651        2.90840066720559
H            2.09910837211602        4.97937731403497        3.79008572914768
H            4.44893298276912        5.49193349259945        3.32249661176593
H            5.82941409030538        3.93602786034742        1.98002902870995
H            6.79633680132371        1.85582420221477        0.54156634784881
H            6.76332197115972       -2.64523978710619        0.62021892716748
H            8.30103055187170       -4.57172826171023        0.67329572954583
H           10.42510875884729       -4.52842573758837       -0.54396925639786
H           11.09595779329633       -2.53301584818946       -1.84107224493487
H           11.22642400701075       -0.06840333819946       -3.05604860296530
H           10.77989507974624        2.22057136867688       -3.87812724436393
H            8.69056211472667        3.36573663946516       -3.31355834717700
H            6.98859265523301        2.28430926633348       -1.89562894040464
H            5.21593586325707       -1.76150405688126       -1.10635689744255
H            2.98023110475785       -1.26791677595923       -0.17444134785768
H            0.08067492866082        2.40733496217759        0.99149232570869
