58
 energy: -91.815525376711 gnorm: 0.000020010748 xtb: 6.7.1 (edcfbbe)
C            7.81609890144248        1.59143930014724        0.46261620267267
C            6.88146513123024        2.18556013332840        1.29567832905729
C            5.54733526546697        1.84411994890123        1.19478000719765
C            5.12634903570044        0.89589228289870        0.26308593981054
C            3.69941813709630        0.55629951203534        0.18330179820728
C            3.26846770417242       -0.70597478705165       -0.28368825456218
C            1.92800225348436       -0.99947295591701       -0.34574245897034
C            1.48154220587346       -2.33747599468889       -0.76666398328376
C            1.94209209514644       -2.88557937496225       -1.96013924820800
C            1.53695922899041       -4.14779171800085       -2.35338562407480
C            0.67508182370173       -4.88176293042453       -1.55563097713474
C            0.22271804776977       -4.34961405912728       -0.35964661575307
C            0.62178506555132       -3.08575453601843        0.03363430462191
C            0.99962684222234        0.01062123577963        0.02928488839314
C           -0.39391629115293       -0.12758712145382       -0.08594510058585
C           -1.23300336260401        0.87463190327952        0.33839129614271
N           -2.63261621384983        0.71439024835207        0.24936094327816
C           -3.27695271631905       -0.31096238964564        0.94458102021927
C           -2.60021468806985       -1.16996382573411        1.80129927218769
C           -3.27093979242374       -2.17983783920497        2.47412491983887
C           -4.63150630145617       -2.34170515272685        2.31193087005206
C           -5.32879740653766       -1.47031397299067        1.48795838781307
C           -4.66477551099695       -0.46040880111937        0.81737111716277
O           -5.42965785670439        0.38266087927462        0.05002846309538
C           -4.78102711580618        1.38673219270971       -0.62599460284986
C           -5.55897362711781        2.22033388207211       -1.40687352633744
C           -4.97185897633674        3.23769254944630       -2.14530491910018
C           -3.60200529606118        3.39892574336481       -2.11081884824726
C           -2.81691540396809        2.56589736501580       -1.32788365190945
C           -3.39280827648091        1.56513112463194       -0.55545841682680
C           -0.70259604303955        2.06545987042942        0.87721001311818
C            0.64742013226317        2.24438683066135        0.95544046391046
C            1.53461805123322        1.23288462453903        0.52419430182025
N            2.85232811899688        1.47216388581904        0.59749035777792
C            6.07171009014894        0.31162410211899       -0.57692418316505
C            7.40605588790646        0.65965041453947       -0.47618227533394
H            8.86008637423441        1.85731535687250        0.54052205971823
H            7.19686424925670        2.91745756483912        2.02495036024232
H            4.80652657293829        2.29975307676566        1.83296515946294
H            3.99362927795717       -1.46346550933405       -0.53931158118803
H            2.60576245934537       -2.30794362391719       -2.58770933761391
H            1.89467651160071       -4.56025162978870       -3.28545705041952
H            0.35923518176350       -5.86740999604746       -1.86357105634349
H           -0.44396824396858       -4.92033850513402        0.26997076307085
H            0.28370952512395       -2.68272385209376        0.97731303067511
H           -0.80871566635697       -1.02676803541669       -0.51791282564281
H           -1.54044052259785       -1.03984686488530        1.95422873936827
H           -2.71712812853192       -2.83485279647634        3.12935855537599
H           -5.15800998023080       -3.12899505623876        2.82792702574925
H           -6.39572577353966       -1.55425071842582        1.35619608858433
H           -6.62405199328746        2.05325287840457       -1.42780705367221
H           -5.58751469794381        3.88586429912125       -2.74872160270567
H           -3.12787142638898        4.17230131358918       -2.69539652754300
H           -1.74556265789138        2.69232642447943       -1.32367944113125
H           -1.38424709454582        2.82981574613224        1.22065554639292
H            1.07398968310527        3.15463356119586        1.34626978428761
H            5.76552313905772       -0.39978955146742       -1.32975872444085
H            8.13007870432958        0.20344751330716       -1.13580639888527
