99
 energy: -160.553890333600 gnorm: 0.000063613907 xtb: 6.7.1 (edcfbbe)
C           -7.56441379417930       -0.08240146787139       -0.03112043490061
C           -6.87924910297842        0.90522191614054        0.66777841543365
C           -5.50353267097735        0.92080911744781        0.68808453220621
C           -4.76316218113795       -0.05944388340254        0.00165012869662
C           -3.33561943462967       -0.04659800460085        0.01398295461103
N           -2.68435154234025        0.99705387884115        0.59054524515460
C           -1.38462777815069        0.97077474323493        0.53677574722280
N           -0.65641610619910        2.05692460772941        0.99825411820126
C           -1.06694372971434        3.38076309453917        0.86553793588197
C           -2.34343754695426        3.89495910680323        0.72474089976758
C           -2.47818479975341        5.26956674150291        0.61337174281169
C           -1.36782591899480        6.10941382754346        0.62876283545815
C           -0.08838861815854        5.59796669328849        0.74754960857198
C            0.06823091965156        4.22292358116187        0.86750747316895
C            1.21911604801650        3.37138276176965        0.99933769581350
C            2.58358504383765        3.64657275287210        0.96024777824469
C            3.48652666624485        2.60711256854487        1.07346649053991
C            3.01623012411200        1.32129766516728        1.32546787823025
C            3.70855490814794        0.09919290367978        1.61571474156789
C            5.05490456039497       -0.23623976705010        1.64671536546916
C            5.40824394597371       -1.51758072123409        2.02569280167596
C            4.43826338556881       -2.44284151983108        2.40016081518505
C            3.09080490146889       -2.12596234630153        2.38263714880864
C            2.72417293171816       -0.85803568619158        1.95507251984173
N            1.46994147005479       -0.27391149409654        1.84966392465863
C            0.27523885212384       -0.82940071603393        2.31822616760151
C           -0.58482018702377       -0.05772745097839        3.10554225171709
C           -1.77002141448661       -0.59228792032749        3.57019235801672
C           -2.10899593810611       -1.90451069307527        3.28050488795778
C           -1.23779399568280       -2.68759543132673        2.53794719657071
C           -0.05118260255859       -2.16172227694700        2.06663878638904
C            1.62975376929165        1.03095311992603        1.43780679371639
C            0.72134997347040        2.04719763454107        1.14010959740397
N           -0.63039382326345       -0.01257620057359        0.01427042732274
C           -1.35991492920330       -1.01654108270803       -0.50407268958377
N           -0.60465411654841       -2.08335360491441       -0.96763912971649
C           -0.96960781040870       -3.41786211195645       -0.81521994370485
C           -2.22508913003146       -3.96993688074196       -0.63421727391141
C           -2.31304855038747       -5.34678236415087       -0.50532139046787
C           -1.17738712709180       -6.15145982040389       -0.54328799717556
C            0.08149255923266       -5.60172099754884       -0.70339809470084
C            0.19150831138247       -4.22371129646154       -0.84050502371966
C            1.31082444660944       -3.33705332790844       -1.00775425502266
C            2.68394766291665       -3.56833054114506       -1.00329791125918
C            3.54988496723228       -2.50122961869187       -1.14525921888313
C            3.03264204180816       -1.23196793349144       -1.38887242389311
C            3.67816631864968        0.01070829829875       -1.69899573430666
C            5.01180461731449        0.38921971670910       -1.76516791411280
C            5.31380109745562        1.68054165841134       -2.15469016138917
C            4.30539230287269        2.57355644802224       -2.50523664402876
C            2.96971568922031        2.21351380171572       -2.45275343331182
C            2.65540566357605        0.93541227227124       -2.01407286718391
N            1.42350678376396        0.31206071440983       -1.87546540994570
C            0.19978903351088        0.83103890605838       -2.30952602064509
C           -0.65837263539176        0.03377500237919       -3.07326484435298
C           -1.87394977692603        0.53088224926697       -3.49957565778867
C           -2.24636150874115        1.83037719044639       -3.19436695596494
C           -1.37786014819178        2.64004902505370       -2.47721513403770
C           -0.16079087772742        2.15200060159615       -2.04468500415524
C            1.63507133022498       -0.98616251430701       -1.46615344053580
C            0.76764226269423       -2.02997760967987       -1.14239832755592
N           -2.65837019665584       -1.07692181388387       -0.55576021684160
C           -5.47127555421569       -1.05225428522262       -0.70086547050959
C           -6.84710833448952       -1.05901630366720       -0.71310968946415
H           -8.64444068104292       -0.09079593930251       -0.04417816112882
H           -7.43336200916669        1.66562216781468        1.20149966343667
H           -4.96812868729395        1.67871261070789        1.24007922732696
H           -3.19491085631087        3.23540042299386        0.69605302075931
H           -3.46499921949066        5.69570848350843        0.50966573360450
H           -1.51089095255490        7.17611162510650        0.54058855605690
H            0.77125496116121        6.25035997567587        0.75230101085560
H            2.92317207445678        4.66102815729157        0.82348177445787
H            4.54703763684716        2.78717657925724        1.00612739501908
H            5.80376591008776        0.49345116560937        1.38215700396247
H            6.44919478390404       -1.80271092530825        2.05031139738429
H            4.74026653904332       -3.42883211069159        2.71937184678806
H            2.36159332273833       -2.84888608634714        2.71050253565514
H           -0.31265122102445        0.95632688509909        3.35937328047920
H           -2.43360972677612        0.01965037146599        4.16346799850193
H           -3.04308086848941       -2.31492403688061        3.63259628729182
H           -1.48983119466517       -3.71329415599476        2.31243218129276
H            0.60433659428630       -2.76713746103544        1.46211602097469
H           -3.09612351366103       -3.33710007004785       -0.58893754124638
H           -3.28253678078658       -5.80263009954846       -0.36955417573947
H           -1.28420226960635       -7.22108328736231       -0.44025777061585
H            0.96078821868669       -6.22702231142529       -0.72538704044716
H            3.05944366710285       -4.57062161811503       -0.87077612607477
H            4.61697979397658       -2.64731634116926       -1.10548156960914
H            5.79058432623323       -0.31528042458551       -1.51932463647819
H            6.34407137142823        1.99886532323439       -2.20655861241776
H            4.56719142101261        3.56823164826526       -2.83295531344070
H            2.20913277425601        2.91156580728954       -2.76294449999065
H           -0.36152374796842       -0.97049677012568       -3.33815385518732
H           -2.53559171215473       -0.10090922303005       -4.07389719233752
H           -3.20446517947042        2.21070331330058       -3.51432281417261
H           -1.65627735428015        3.65638522462764       -2.24060702337339
H            0.49330159699056        2.77664638129287       -1.45831145652006
H           -4.91030216579266       -1.80120667904837       -1.23961916079988
H           -7.37604484031827       -1.82830933137186       -1.25950416763191
