  62
        -93.39991476
 C          2.1653684908       -4.4984144444        1.8680174782
 C          1.0698735706       -4.6121741439        1.0632316201
 B          0.4570203192       -3.3463350513        0.4630048081
 C          1.2143488012       -2.0210927464        0.7319912448
 C          0.7022457827       -0.8021473107        0.2160780965
 C         -0.6298036736       -0.7615387885       -0.2281851651
 C         -1.3500432569        0.4647760116       -0.0803837437
 C         -2.7314640669        0.5008487087       -0.0062425427
 C         -3.4664374082        1.6614060616        0.2672780146
 C         -4.9119351475        1.6641585957        0.3092928012
 C         -5.6220394631        2.6059595400        1.0682760908
 C         -7.0006228362        2.6059158445        1.0949016668
 C         -7.7189807024        1.6713562975        0.3648738804
 C         -7.0350484420        0.7322536704       -0.3923517798
 C         -5.6568493443        0.7255304630       -0.4210844740
 C         -2.6884226058        2.8190954555        0.5447991081
 C         -1.3390238168        2.7790592349        0.5051124984
 N         -0.6287090038        1.6437484546        0.1725318272
 C          0.7483759446        1.6626866678        0.0568700993
 C          1.4685103407        2.8457217912       -0.1352647554
 C          2.8446360072        2.8252315805       -0.2426607890
 C          3.5526640248        1.6274818846       -0.2021242803
 C          5.0118234153        1.6008558092       -0.3341443792
 C          5.7761849349        0.6906200698        0.3961412775
 C          7.1526584451        0.6705557734        0.2798051503
 C          7.7943534155        1.5549957357       -0.5713990713
 C          7.0468217244        2.4603351235       -1.3062506186
 C          5.6705283100        2.4848975545       -1.1886913482
 C          2.8297663743        0.4433734207       -0.0403377822
 C          1.4517259862        0.4413739131        0.1288322295
 C         -1.2692347120       -1.9500321507       -0.7711291189
 C         -2.2476719365       -1.8267856284       -1.7625537187
 C         -2.8493463084       -2.9436233021       -2.3127595009
 C         -2.4717110582       -4.2107497167       -1.8971500759
 C         -1.4477945802       -4.3452511765       -0.9778518792
 C         -0.8107143302       -3.2385561813       -0.4131685724
 C          2.2940626323       -2.0541414147        1.6247628343
 C          2.7472889302       -3.2432444944        2.1562799969
 H          2.6157610583       -5.3703440983        2.3278353768
 H          0.6605489672       -5.6047524212        0.9197122555
 H         -3.2558528876       -0.4365565061       -0.0866679450
 H         -5.0859021527        3.3267148663        1.6675490993
 H         -7.5234046479        3.3373879278        1.6948061151
 H         -8.7983487408        1.6738690116        0.3870216715
 H         -7.5851518638        0.0022619948       -0.9691108142
 H         -5.1469863832        0.0017731902       -1.0394786177
 H         -3.1682279389        3.7498396082        0.7991052474
 H         -0.7518993054        3.6411109868        0.7703814416
 H          0.9606402831        3.7921809958       -0.2292983009
 H          3.3743232197        3.7587815611       -0.3583295761
 H          5.2877983630        0.0085862014        1.0766745412
 H          7.7297359734       -0.0364151483        0.8584646808
 H          8.8703956162        1.5386508827       -0.6617981125
 H          7.5402985775        3.1492975868       -1.9764093282
 H          5.0956540077        3.1805206265       -1.7825411363
 H          3.3488152510       -0.5002206364       -0.0975179501
 H         -2.5058988350       -0.8490102983       -2.1438965713
 H         -3.6095882261       -2.8234799151       -3.0711451081
 H         -2.9572136422       -5.0840446449       -2.3080916756
 H         -1.1223746513       -5.3337019874       -0.6885402358
 H          2.7658330369       -1.1351769539        1.9496587057
 H          3.5914237416       -3.2194628688        2.8332681703
  62
        -93.39980372
 C          2.1620257672       -4.5309158817        1.7943590306
 C          1.0680528791       -4.6341706106        0.9859048662
 B          0.4587221480       -3.3609791959        0.3980763161
 C          1.2157398938       -2.0393074158        0.6847678304
 C          0.7036502749       -0.8134854130        0.1849492914
 C         -0.6288995291       -0.7672734067       -0.2591377228
 C         -1.3513805104        0.4538214970       -0.0824731812
 C         -2.7324213894        0.4865958065        0.0030864872
 C         -3.4655866125        1.6443260140        0.2891416007
 C         -4.9110781116        1.6592704389        0.3423023960
 C         -5.6255764921        2.8444131350        0.1121678235
 C         -7.0034243755        2.8661122734        0.1561979996
 C         -7.7163136104        1.7095802751        0.4330496575
 C         -7.0277606543        0.5279907461        0.6626052942
 C         -5.6500893179        0.4991531538        0.6171500155
 C         -2.6876355359        2.7998823294        0.5780854318
 C         -1.3383897337        2.7573616644        0.5471880649
 N         -0.6305075202        1.6290912657        0.1869340413
 C          0.7459851852        1.6526234857        0.0665708774
 C          1.4605670628        2.8409321831       -0.1106631232
 C          2.8373763220        2.8272850575       -0.2134135534
 C          3.5492062771        1.6317724839       -0.1836558206
 C          5.0098315236        1.6133950565       -0.3015845380
 C          5.7705586896        0.7039695369        0.4334329310
 C          7.1484462116        0.6929939238        0.3339902382
 C          7.7948425200        1.5853550713       -0.5052817173
 C          7.0508196932        2.4895510221       -1.2451738196
 C          5.6730445109        2.5056620657       -1.1438590340
 C          2.8306445286        0.4419941964       -0.0441721592
 C          1.4519734008        0.4321994530        0.1196371125
 C         -1.2672313202       -1.9488559425       -0.8191260598
 C         -2.2466307558       -1.8130476339       -1.8079345394
 C         -2.8466540684       -2.9233600558       -2.3734906664
 C         -2.4667281011       -4.1956169018       -1.9763169324
 C         -1.4429799990       -4.3415038612       -1.0584532822
 C         -0.8076944307       -3.2417905090       -0.4783739579
 C          2.2939849752       -2.0841435070        1.5786650925
 C          2.7451988760       -3.2799108931        2.0970972592
 H          2.6101180294       -5.4085349693        2.2454604426
 H          0.6574399241       -5.6244435810        0.8306444955
 H         -3.2589951416       -0.4416624181       -0.1388842294
 H         -5.0924218775        3.7510494316       -0.1332964303
 H         -7.5298777694        3.7913045784       -0.0312104018
 H         -8.7951954474        1.7288082811        0.4693280317
 H         -7.5734866081       -0.3781334352        0.8844440672
 H         -5.1369623928       -0.4277130833        0.8260924827
 H         -3.1682540327        3.7098906694        0.8982301016
 H         -0.7488078164        3.6039812662        0.8544941072
 H          0.9472782495        3.7854644380       -0.1954244582
 H          3.3642030333        3.7640763064       -0.3162973920
 H          5.2775504162        0.0161291425        1.1047127372
 H          7.7228300686       -0.0131776004        0.9161937565
 H          8.8719487680        1.5757001383       -0.5831227139
 H          7.5482889364        3.1847087981       -1.9062723252
 H          5.1008138450        3.2013349500       -1.7402978945
 H          3.3545821062       -0.4980969096       -0.1135178652
 H         -2.5099257869       -0.8311124041       -2.1743781499
 H         -3.6083967945       -2.7927410611       -3.1284436597
 H         -2.9508329819       -5.0639247634       -2.3993787163
 H         -1.1163212131       -5.3333709747       -0.7824705416
 H          2.7663178806       -1.1697769844        1.9152401769
 H          3.5887732671       -3.2647952167        2.7749865627
  62
        -93.39967156
 C          2.1632823303       -4.5605776732        1.7586895962
 C          1.0644534723       -4.6485777490        0.9553399515
 B          0.4548687693       -3.3648192191        0.3908596242
 C          1.2156673286       -2.0487866696        0.6954011790
 C          0.7036283081       -0.8149268942        0.2160763862
 C         -0.6286059059       -0.7609715470       -0.2271607182
 C         -1.3490773204        0.4610582661       -0.0467442586
 C         -2.7304545499        0.4987725990        0.0206883033
 C         -3.4640312229        1.6537147450        0.3236178285
 C         -4.9097558230        1.6633038796        0.3429594662
 C         -5.6471066140        0.7513235647       -0.4280746282
 C         -7.0254365602        0.7677101041       -0.4262431154
 C         -7.7177224557        1.6902786672        0.3435966543
 C         -7.0072485219        2.5975528215        1.1146499207
 C         -5.6285111250        2.5876781631        1.1153650855
 C         -2.6844243475        2.7974165564        0.6503127965
 C         -1.3349065584        2.7546067466        0.6176250890
 N         -0.6269857822        1.6306009685        0.2438390390
 C          0.7490491443        1.6531547374        0.1231894095
 C          1.4658905162        2.8424286471       -0.0415909144
 C          2.8418851957        2.8275784949       -0.1490406156
 C          3.5500145673        1.6290899572       -0.1490068674
 C          5.0081156627        1.6108172606       -0.3007152581
 C          5.7987424402        2.5840360005        0.3098960001
 C          7.1732277622        2.5671937087        0.1698246695
 C          7.7854082075        1.5807685379       -0.5856405675
 C          7.0110317618        0.6100535185       -1.1994318193
 C          5.6367225232        0.6223219296       -1.0575543669
 C          2.8300487688        0.4397305341       -0.0201584266
 C          1.4532940663        0.4307842088        0.1583535644
 C         -1.2677756662       -1.9326810777       -0.8057452374
 C         -2.2428732995       -1.7800552453       -1.7963984803
 C         -2.8433533009       -2.8801047387       -2.3806614904
 C         -2.4679601472       -4.1590625695       -2.0006032668
 C         -1.4470288402       -4.3208251169       -1.0824316234
 C         -0.8110880254       -3.2312890528       -0.4839915612
 C          2.2998176561       -2.1102648790        1.5815919714
 C          2.7511674136       -3.3155400809        2.0774603736
 H          2.6125981369       -5.4461376089        2.1928344495
 H          0.6507348204       -5.6353353778        0.7862124949
 H         -3.2574941938       -0.4339947478       -0.0903865591
 H         -5.1305093900        0.0409682273       -1.0563536980
 H         -7.5691277009        0.0592264465       -1.0350640168
 H         -8.7973278075        1.7021897589        0.3424852737
 H         -7.5367001467        3.3164342362        1.7239042346
 H         -5.0996843346        3.2871183573        1.7455672523
 H         -3.1631687666        3.7189147267        0.9380911513
 H         -0.7452043064        3.6025967787        0.9203718946
 H          0.9526167560        3.7870635366       -0.1258200424
 H          3.3670329578        3.7608988104       -0.2867461071
 H          5.3319058165        3.3450759694        0.9181201488
 H          7.7716020446        3.3245288467        0.6554580383
 H          8.8597422499        1.5686212365       -0.6952794076
 H          7.4815313708       -0.1594931463       -1.7943058416
 H          5.0405368810       -0.1279939152       -1.5562812102
 H          3.3558700558       -0.5003879925       -0.0655394258
 H         -2.4988150275       -0.7915002542       -2.1505068239
 H         -3.6011636901       -2.7376629666       -3.1376356123
 H         -2.9529947610       -5.0197624989       -2.4378433751
 H         -1.1229961004       -5.3174661013       -0.8209872264
 H          2.7803617156       -1.2041642694        1.9282817086
 H          3.6002416087       -3.3123765126        2.7484219396
  62
        -93.39957049
 C          2.1659333240       -4.4277253460        2.0552006607
 C          1.0720895241       -4.5746726246        1.2535565762
 B          0.4594621532       -3.3341303291        0.6023713972
 C          1.2156738754       -1.9981259888        0.8170103087
 C          0.7044354166       -0.8018952382        0.2484125738
 C         -0.6264615704       -0.7819718414       -0.2016908414
 C         -1.3500192600        0.4477541098       -0.1022487919
 C         -2.7306773727        0.4842509783       -0.0200448840
 C         -3.4653965479        1.6581902672        0.1873731893
 C         -4.9109308123        1.6739825824        0.2368145225
 C         -5.6476999361        0.5344003714        0.5921577719
 C         -7.0255220213        0.5627615975        0.6325766409
 C         -7.7163799982        1.7231146241        0.3174699721
 C         -7.0056702274        2.8589221814       -0.0396701455
 C         -5.6276488229        2.8379748304       -0.0786635567
 C         -2.6890003686        2.8309402264        0.3992111043
 C         -1.3394547952        2.7875504073        0.3754023941
 N         -0.6299948715        1.6378213668        0.0925360306
 C          0.7463065291        1.6529154817       -0.0239583595
 C          1.4608752202        2.8283519220       -0.2748406490
 C          2.8381093444        2.8104597848       -0.3657552032
 C          3.5493914224        1.6183297454       -0.2649114345
 C          5.0097568924        1.5970259931       -0.3931715104
 C          5.6556159273        0.5625986691       -1.0696225294
 C          7.0319794615        0.5510682658       -1.1908835124
 C          7.7908853390        1.5679801238       -0.6354053140
 C          7.1614946377        2.5994205726        0.0418075921
 C          5.7850427074        2.6156187641        0.1605185279
 C          2.8313158441        0.4387761232       -0.0574747969
 C          1.4527624836        0.4381920942        0.1073318383
 C         -1.2654756283       -1.9933240040       -0.6925080531
 C         -2.2433910627       -1.9136266689       -1.6890364612
 C         -2.8459940734       -3.0537104593       -2.1884233691
 C         -2.4706182134       -4.3012373328       -1.7153515122
 C         -1.4470983809       -4.3953916043       -0.7906238651
 C         -0.8083505561       -3.2649327620       -0.2769728697
 C          2.2930295115       -1.9944175551        1.7134389935
 C          2.7458739704       -3.1612354386        2.2932305475
 H          2.6166468471       -5.2801602216        2.5499822970
 H          0.6634865091       -5.5724605073        1.1491051158
 H         -3.2565988768       -0.4516128495       -0.1020035632
 H         -5.1325809078       -0.3735218467        0.8688067025
 H         -7.5694990505       -0.3264844387        0.9181912902
 H         -8.7954102848        1.7419189820        0.3496889344
 H         -7.5340841741        3.7666487052       -0.2947347930
 H         -5.0958606265        3.7258037230       -0.3876769633
 H         -3.1712386035        3.7601642226        0.6556695337
 H         -0.7510699254        3.6529704518        0.6275783503
 H          0.9454091798        3.7614427645       -0.4372148016
 H          3.3624448196        3.7322688603       -0.5686676076
 H          5.0714756674       -0.2251018612       -1.5229871727
 H          7.5163996629       -0.2541407876       -1.7241714106
 H          8.8666763713        1.5570757315       -0.7298290330
 H          7.7476297284        3.3936781166        0.4815956655
 H          5.3037606705        3.4140919912        0.7067000711
 H          3.3607506343       -0.4999611668       -0.0281915297
 H         -2.5032818385       -0.9542893059       -2.1132112330
 H         -3.6064945781       -2.9660338216       -2.9507868355
 H         -2.9583440407       -5.1915776895       -2.0851138409
 H         -1.1240020665       -5.3700590817       -0.4555560442
 H          2.7673304579       -1.0646924250        2.0012572345
 H          3.5903089976       -3.1086427711        2.9679738647
  62
        -93.39878279
 C          2.2741562950       -4.5688409889        1.8829749871
 C          1.1345213236       -4.6725101282        1.1407895663
 B          0.4901941550       -3.3994069905        0.5905034107
 C          1.2538725375       -2.0755273066        0.8483282758
 C          0.7131395319       -0.8519678859        0.3774605927
 C         -0.6283773372       -0.8103491677       -0.0418962992
 C         -1.3543721912        0.4097942702        0.1302240652
 C         -2.7363438948        0.4709218541        0.1237827246
 C         -3.4671621569        1.6421546755        0.3777184256
 C         -4.9003416523        1.7102753109        0.2060643845
 C         -5.6797002451        2.6854220770        0.8472133447
 C         -7.0373007062        2.7742904543        0.6245168039
 C         -7.6685948940        1.8960574644       -0.2427652182
 C         -6.9187954389        0.9176355292       -0.8779488314
 C         -5.5613930439        0.8234076476       -0.6591348612
 C         -2.6934838845        2.7493825640        0.8234381490
 C         -1.3459113260        2.6803376699        0.8757074129
 N         -0.6362240635        1.5709114617        0.4648992942
 C          0.7356304460        1.6139677159        0.3143806446
 C          1.4321543131        2.8159592072        0.1575611726
 C          2.7984395434        2.8153974504       -0.0367551671
 C          3.5103562748        1.6225218421       -0.1302945241
 C          4.9442064563        1.6259299416       -0.4368060588
 C          5.4831812272        0.6842599088       -1.3129355856
 C          6.8275615995        0.7059029327       -1.6308304640
 C          7.6606918466        1.6630989019       -1.0755746948
 C          7.1386067913        2.5988162493       -0.1977419209
 C          5.7932915700        2.5828520308        0.1175067492
 C          2.8139135983        0.4233985956        0.0285302677
 C          1.4511910542        0.3995358987        0.2924467434
 C         -1.2563654123       -1.9953913362       -0.6082107625
 C         -2.2225180930       -1.8683131555       -1.6107580307
 C         -2.8182628653       -2.9826378808       -2.1731690747
 C         -2.4449949678       -4.2517182922       -1.7605347945
 C         -1.4247088694       -4.3898537489       -0.8376443793
 C         -0.7928018807       -3.2858362605       -0.2620866572
 C          2.3843734183       -2.1199736512        1.6763270737
 C          2.8703649031       -3.3170045761        2.1580191380
 H          2.7523277110       -5.4471718787        2.3008650338
 H          0.7188237646       -5.6637238710        1.0058763577
 H         -3.2745436181       -0.4508916684       -0.0182578424
 H         -5.2204249483        3.3683120946        1.5457628771
 H         -7.6128987306        3.5354730596        1.1320623029
 H         -8.7306000982        1.9728960549       -0.4212703890
 H         -7.3991455609        0.2286047686       -1.5582934986
 H         -4.9961163749        0.0730423531       -1.1912668933
 H         -3.1733879085        3.6610175578        1.1384609450
 H         -0.7589524374        3.4934597941        1.2678510056
 H          0.9064189581        3.7571789603        0.1369824085
 H          3.3088706502        3.7562983546       -0.1777776732
 H          4.8362556349       -0.0519538720       -1.7674634670
 H          7.2274712865       -0.0246397511       -2.3192443751
 H          8.7112087901        1.6797305094       -1.3256659399
 H          7.7843954413        3.3446685502        0.2429793452
 H          5.3966801352        3.3075738749        0.8139723925
 H          3.3441645286       -0.5108229873       -0.0673606625
 H         -2.4707364082       -0.8898400649       -1.9965353431
 H         -3.5696122018       -2.8582505270       -2.9396783582
 H         -2.9272195477       -5.1231951014       -2.1790739714
 H         -1.0969112806       -5.3793925112       -0.5547620023
 H          2.8772435234       -1.2068353699        1.9853602746
 H          3.7539463748       -3.3026098207        2.7827428670
  62
        -93.39679478
 C          2.8503952633       -4.6703239108       -0.0479373180
 C          1.5700284406       -4.6740470759       -0.5156542815
 B          0.6914905815       -3.4439389630       -0.2586690561
 C          1.4144674086       -2.1974058693        0.3052818310
 C          0.7013968368       -0.9603425933        0.3436582689
 C         -0.6903863232       -0.9629960252        0.3246289360
 C         -1.3854597399        0.2946270316        0.3729295615
 C         -2.6692102869        0.5000914057       -0.0878818338
 C         -3.3939571717        1.6723132495        0.1742019167
 C         -4.7150374375        1.8978732443       -0.3700282311
 C         -5.0944988089        1.3158621028       -1.5885548929
 C         -6.3475516164        1.5322245460       -2.1213486299
 C         -7.2654827169        2.3318389786       -1.4577190469
 C         -6.9092269168        2.9141363512       -0.2510953125
 C         -5.6559825553        2.7046757326        0.2847530616
 C         -2.7608143121        2.5871729509        1.0609219869
 C         -1.4624369470        2.4358820658        1.4012173203
 N         -0.6931819711        1.3898542618        0.9187811481
 C          0.6724677370        1.4708310863        0.7906260365
 C          1.3693059732        2.6714519734        0.9742143367
 C          2.7128167204        2.7578770348        0.6785181398
 C          3.4000327392        1.6753271782        0.1332412097
 C          4.8024991062        1.7955123741       -0.2747104098
 C          5.2675476866        1.1610124944       -1.4265781022
 C          6.5878014855        1.2831342661       -1.8149614003
 C          7.4715976062        2.0359581695       -1.0592966897
 C          7.0233342172        2.6672191818        0.0892929779
 C          5.7025330682        2.5501933779        0.4775236697
 C          2.7120794843        0.4708029714       -0.0181310342
 C          1.3880929625        0.3255889901        0.3714528431
 C         -1.4552862332       -2.2067159103        0.2955120278
 C         -2.7711706200       -2.2644708507        0.7602653174
 C         -3.5291809940       -3.4137895987        0.6193677674
 C         -2.9838534029       -4.5350611711        0.0148962511
 C         -1.6499771518       -4.5242012812       -0.3489419055
 C         -0.8467488024       -3.3932378685       -0.1830221376
 C          2.7024289976       -2.3699939998        0.8165767323
 C          3.3850354894       -3.5587415145        0.6429715103
 H          3.4943438618       -5.5331192268       -0.1713740820
 H          1.2206939827       -5.5733699507       -1.0076241763
 H         -3.1393220544       -0.2983335118       -0.6388841581
 H         -4.3847192200        0.7115417917       -2.1337181565
 H         -6.6122945068        1.0792094403       -3.0663202791
 H         -8.2465768922        2.5000159819       -1.8762199148
 H         -7.6190104660        3.5347936391        0.2769772490
 H         -5.4121231511        3.1496496379        1.2379290829
 H         -3.3007075596        3.4356170177        1.4480098009
 H         -0.9676007303        3.1226803838        2.0672516248
 H          0.8539476810        3.5613055050        1.2965659629
 H          3.2168716020        3.7043089480        0.8050001832
 H          4.5813406508        0.5882404138       -2.0333947317
 H          6.9296772602        0.7917885261       -2.7145579272
 H          8.5035731028        2.1301632129       -1.3635994795
 H          7.7085078806        3.2514940963        0.6866654666
 H          5.3669490956        3.0301564177        1.3854691649
 H          3.2264759497       -0.3735692269       -0.4482005458
 H         -3.2027173739       -1.4172825422        1.2727707815
 H         -4.5451139499       -3.4323594339        0.9865282538
 H         -3.5814945669       -5.4246437340       -0.1215836353
 H         -1.2034654869       -5.4209073695       -0.7531686923
 H          3.1820143970       -1.5821865709        1.3841621584
 H          4.3878162734       -3.6425016911        1.0405995313
