111
 energy: -152.422997563745 gnorm: 0.000069043560 xtb: 6.7.1 (edcfbbe)
C            8.72544781266051       -0.68594462517873       -1.20219005790920
C            7.69933492063640       -1.76428867470267       -1.56423437419917
C            8.19428613811751       -3.10285034881768       -0.99597103452997
C            7.61731429816476       -1.84780469424098       -3.09589982803797
C            6.31580577918581       -1.46738071417522       -1.00200515287208
C            5.27133571643903       -2.36430414279077       -1.26336395580222
C            3.98805835969827       -2.18342196675482       -0.78721594367943
C            3.73417317170539       -1.06763728514877       -0.00501725637590
C            4.76016895148170       -0.13513144948257        0.25007092939455
C            6.04167521921904       -0.33984237677792       -0.24496822123953
C            4.17037586208970        0.92000864188129        1.02907187600974
C            4.68738300511707        2.08207708343566        1.58711321665305
C            3.86504828087500        2.91600942040835        2.32736107713167
C            4.35969545295352        4.21222615172674        2.95479549435642
C            4.18322517950479        4.13721694346299        4.47875264562819
C            3.54236412139678        5.38558464153648        2.39347672911045
C            5.83885960492825        4.48129644304711        2.66079128958758
C            2.52710493161844        2.54132072584399        2.50918193612850
C            1.98746113048002        1.39198166753787        1.96652999711668
C            2.81215721422017        0.58285024799642        1.20052475243558
N            2.55407602542591       -0.62380737670771        0.56986948876894
C            1.32651348231462       -1.28347042986996        0.51971238903951
C            1.25112214856562       -2.64663073249209        0.78786715886520
C            0.03058591402458       -3.31034695416033        0.70243349763365
C           -0.00095950986526       -4.76083827702976        1.00423437035418
O            0.81985115187676       -5.28545761319633        1.73823509020679
C           -1.07447908532516       -5.56183367472256        0.36555077031742
C           -1.65388197836260       -6.62619270557315        1.05630507612389
C           -2.63032483224747       -7.38117308046506        0.43171593339199
C           -2.98668692372146       -7.04649622489911       -0.86784916100073
N           -2.41728330080082       -6.06282954064921       -1.54622408488497
C           -1.48598098052587       -5.34365696033452       -0.95146301327147
C           -1.12824246706397       -2.60628237614767        0.38812747177452
C           -1.06392684836200       -1.23368911503193        0.16023319706364
N           -2.22580329314108       -0.51842870466520       -0.13126470548588
C           -3.42830542082307       -0.61101392841847        0.55173967641176
C           -3.77062489463145       -1.34736064349173        1.67297931645583
C           -5.05500697571274       -1.22417513382134        2.17390274350358
C           -6.01073567711711       -0.38049222467151        1.60199456355204
C           -7.42473172472809       -0.25152066865616        2.15350901154210
C           -7.66385592286021        1.20338752225443        2.58483728236325
C           -8.42795745761433       -0.63945422723156        1.05673725849298
C           -7.67653973377190       -1.15312805616957        3.36604140049981
C           -5.64468146194652        0.37596740076118        0.49560972766696
C           -4.36604298819007        0.27047835140748       -0.02748351486683
C           -3.69508871004960        0.92235304870063       -1.12066960310938
C           -4.10141380207158        1.86191617328669       -2.05456255657033
C           -3.21693458698830        2.30210680759340       -3.03130887444371
C           -3.68202032032902        3.34913608234878       -4.03493198108069
C           -2.59166974384646        3.74116540102601       -5.03686597288667
C           -4.87712728753096        2.79366441974318       -4.82393967714679
C           -4.10471991849293        4.61524117765186       -3.27428431201004
C           -1.93131396330132        1.75550509682625       -3.05676892173364
C           -1.49991348362852        0.81534297725798       -2.13726387832360
C           -2.38000474720749        0.41132386721435       -1.14802264281727
C            0.16457535176364       -0.57972340957908        0.21231879285118
H            9.69291534961885       -0.95050885306116       -1.62469792371871
H            8.84199563094572       -0.60262881482289       -0.12394874705409
H            8.43566110342458        0.28118986578874       -1.60686601850054
H            7.53448323323580       -3.92048948750514       -1.27337982010455
H            8.23975060275604       -3.05639674008325        0.09056645813540
H            9.18999847188419       -3.32542269451547       -1.37424736649429
H            8.60542533988689       -2.02868445236569       -3.51414527386306
H            6.96123255597806       -2.65263616864685       -3.41593563340116
H            7.23499794216408       -0.91371172178523       -3.50316560207971
H            5.46338554514180       -3.23975198634701       -1.86494713408278
H            3.21107595581268       -2.89279951988298       -1.03089673296513
H            6.80047593950650        0.39345742191881       -0.02936026010131
H            5.72929795505228        2.30755327910422        1.43371235372400
H            3.13830148167080        4.02124802224072        4.75312470299569
H            4.73680030067294        3.29043945348869        4.88030172981533
H            4.55790418946802        5.04676459967624        4.94402571245673
H            3.64658062368778        5.43225716139423        1.31104464474290
H            2.48669035164487        5.28330447907710        2.62943056164086
H            3.89613847420754        6.32416939543661        2.81532963749356
H            6.13478189225937        5.42082627851595        3.12362866329178
H            6.01642450570322        4.56383796738349        1.59081819329004
H            6.46883252627639        3.69394034171241        3.06859211049987
H            1.87756319748100        3.16770646103623        3.10149888083936
H            0.95579563111053        1.13418637973426        2.15378419786106
H            2.13134616707808       -3.20259352763122        1.07144995094713
H           -1.33733934587164       -6.83299934549867        2.06872755906256
H           -3.10617527867944       -8.20528384829063        0.93892729347184
H           -3.75664914402139       -7.59090819772228       -1.39838413997152
H           -1.03264541847136       -4.56894327564087       -1.55665064827890
H           -2.07890018566910       -3.11153431640941        0.32654117821030
H           -3.05953394724224       -1.99603286479629        2.16293100202941
H           -5.30455533977169       -1.80839218815886        3.04421616438461
H           -8.66380300092987        1.31175585895119        3.00010062277665
H           -7.56829912164235        1.88687351623168        1.74562307037334
H           -6.94084890163760        1.49412146284918        3.34472792824761
H           -8.34015787347090        0.01024730839114        0.19033001843639
H           -8.25384734880593       -1.66391983198232        0.73285625388378
H           -9.44519437043894       -0.56528208542421        1.43600347724084
H           -8.70182067490624       -1.02191654805438        3.70686533482882
H           -7.01458971546232       -0.89647368156804        4.19017366905914
H           -7.53991659361214       -2.20155635396426        3.11026285432145
H           -6.34255943657948        1.05658121335299        0.03319098200759
H           -5.11166096980329        2.23813560694202       -2.00994815567705
H           -2.27996268874450        2.88646436088124       -5.63311542978632
H           -1.72491196259773        4.15900758721695       -4.52947672280040
H           -2.98037155552069        4.49834596439037       -5.71521460407678
H           -5.21516152557403        3.52411697411330       -5.55625330524701
H           -4.59118687573424        1.88445961564043       -5.34953463795999
H           -5.71068601749262        2.55887576611512       -4.16774496842314
H           -3.26806143925046        5.00286481355868       -2.69594010426693
H           -4.42634338416034        5.38383357742058       -3.97421574215717
H           -4.92501101470606        4.41277042486838       -2.59119299826187
H           -1.23152917694165        2.06150273417765       -3.81663675973009
H           -0.50344521854794        0.40623265451042       -2.21057172381197
H            0.21557737536277        0.48024200108405        0.01982981058228
