111
 energy: -152.424600483198 gnorm: 0.000089205089 xtb: 6.7.1 (edcfbbe)
C            8.27458722138485        1.36160297026711       -1.22171071714407
C            7.45154227107740        0.15656181851277       -1.68791166690160
C            8.16081439239611       -1.11846656963868       -1.20733344538903
C            7.40277291757079        0.17698752716829       -3.22296300222921
C            6.03006160010347        0.17241743529327       -1.14243702678104
C            5.16532976313898       -0.87895600821415       -1.47474188439261
C            3.86443697859089       -0.95388311665972       -1.01885336494931
C            3.40526860445358        0.05404964146832       -0.18583560121376
C            4.24447851226943        1.13927668721997        0.13885051900117
C            5.54889131336320        1.19133272437600       -0.33597197523501
C            3.46747435820971        2.02635186055218        0.96210159854075
C            3.76263964697625        3.22743663196387        1.59431107995862
C            2.79941430028881        3.85368209299877        2.36870968391543
C            3.05076831490061        5.17282803422095        3.08643502097026
C            2.89084693292750        4.96129372539803        4.59952431108222
C            2.03490297250264        6.21590040379010        2.59704503352262
C            4.45680696281853        5.72386437556561        2.82952595715870
C            1.54983440802417        3.23483275249617        2.50590914242771
C            1.22923461611644        2.04245398389124        1.88778323671242
C            2.19095281007086        1.44168863012730        1.09056343912393
N            2.15862041985747        0.24654071389537        0.38879812665286
C            1.07437778634576       -0.62722132602159        0.31109844056299
C            1.25871798240201       -1.99265258657807        0.51640842708941
C            0.16649182331119       -2.85372416684818        0.46508740728351
C            0.32675076492422       -4.30632380893866        0.71311341665355
O           -0.54738126078800       -4.97665027467995        1.23513766111728
C            1.61051881134675       -4.90996864243720        0.27960072168061
C            2.20890495024979       -5.92143949620550        1.02998378329040
C            3.39683348219311       -6.47363612557321        0.58469731335514
C            3.94088636969654       -5.99462436110736       -0.59946753859999
N            3.35981411520811       -5.06516325536091       -1.34152551536637
C            2.22587076415209       -4.54249205695512       -0.91917634339716
C           -1.11005409840371       -2.35466015887659        0.22611678793996
C           -1.29721128803011       -0.99274364034657        0.00924284027669
N           -2.57335866078758       -0.48810041417921       -0.23949950981346
C           -3.71706642544194       -0.78789276701667        0.48298076045050
C           -3.88393267927851       -1.57232700153069        1.61351665764323
C           -5.14980295006758       -1.66531268933779        2.15682816795457
C           -6.26080875950291       -0.99903024686281        1.62223115665876
C           -7.61670482704526       -1.17412964338698        2.29281237965221
C           -8.72866831891574       -0.39294447872100        1.58560091022394
C           -7.99810853644237       -2.66201516570362        2.27785848307171
C           -7.53081444482642       -0.67409470137738        3.74270559834278
C           -6.07503640562259       -0.19684003512334        0.50793544804068
C           -4.81188758862392       -0.08429545537270       -0.05899493078996
C           -4.30347312125589        0.66981244185199       -1.17315439302810
C           -4.90682573547751        1.51788005733386       -2.09306096170193
C           -4.14813005476760        2.09628244193970       -3.09786778102706
C           -4.74059786923413        3.03882755986369       -4.13670316472596
C           -4.03521079731514        4.40003591039074       -4.04089845715502
C           -4.53322162699051        2.44332668830883       -5.53734749928403
C           -6.24215887813100        3.26652704876667       -3.93632663691731
C           -2.78217180922844        1.79029723200281       -3.16145541655350
C           -2.15690374827219        0.95076361905477       -2.26104259329052
C           -2.92175163381965        0.39862434479505       -1.24541225624855
C           -0.20099437886270       -0.13444861554405        0.04566051941253
H            9.28093309347157        1.29245905774988       -1.63036537145786
H            8.35356631500522        1.38528885988188       -0.13704653055862
H            7.83563154342647        2.29421191716837       -1.56914141697792
H            7.65864073623347       -2.01226168390669       -1.56716251479714
H            8.17823411053755       -1.15160031975978       -0.11947763349921
H            9.18680438191629       -1.13544881924660       -1.56964425568098
H            8.41202084437924        0.18658865169381       -3.62975380801244
H            6.88618580951004       -0.69471890191096       -3.61508445950446
H            6.88181605322135        1.06709915550173       -3.57078409125765
H            5.51459056424726       -1.67296993576848       -2.11670247761862
H            3.23259951270839       -1.77580910497203       -1.31733721908898
H            6.16239063389098        2.03412949087377       -0.06496530397591
H            4.74761151892093        3.64547099943070        1.47152190747806
H            1.88297956807822        4.64308962474922        4.85192356158240
H            3.58572855607652        4.19948183656000        4.94818185921412
H            3.09827690179599        5.88770023295541        5.13136461687061
H            2.13301414940684        6.36145777969151        1.52286233293181
H            1.01457796585290        5.90642108263186        2.80629844228863
H            2.20925134933278        7.16915857441562        3.09203920480750
H            4.57650229252682        6.66928097126979        3.35520132795256
H            4.61751837879020        5.90647390527979        1.76933049376231
H            5.21888930212598        5.03891186571681        3.19451876022713
H            0.79478734226184        3.69720326633301        3.12329534980716
H            0.25965408117314        1.59320995974288        2.04279600509248
H            2.24016824696625       -2.36799990323929        0.76006267821731
H            1.74243860639512       -6.24466170829095        1.94956548566803
H            3.89237307563103       -7.25163690900245        1.14333748921319
H            4.87950350150289       -6.37376268523014       -0.98137562117969
H            1.76936831098990       -3.81138711153087       -1.57447735712100
H           -1.94324365850758       -3.03893457523700        0.18340093492633
H           -3.05490275177954       -2.09319493733765        2.06927486492296
H           -5.27305188681989       -2.28055444352482        3.03515747981041
H           -9.67280767796255       -0.56175491284463        2.10000837710655
H           -8.84375397830272       -0.72293205713646        0.55553601120546
H           -8.52614397969772        0.67562557843242        1.59884237378384
H           -8.04343254926897       -3.02827144658972        1.25385944835229
H           -7.27525480581725       -3.26381427831176        2.82189839949668
H           -8.97375972109335       -2.80337672735165        2.73866340009088
H           -8.49860168670002       -0.77175954386396        4.23049749002865
H           -7.23789724577707        0.37400331732765        3.76247854148029
H           -6.80266076522733       -1.24151681769224        4.31587627532729
H           -6.88907187741277        0.35290702553103        0.06610119419847
H           -5.96435401625574        1.70269138602699       -2.00634028441891
H           -2.97082797025537        4.31079264627511       -4.24040833675894
H           -4.16119268643145        4.81929261792988       -3.04438152357138
H           -4.46008200521433        5.09374052360107       -4.76365110595500
H           -4.97310611941670        3.09512742192079       -6.28952331103046
H           -3.47799647815893        2.32372322348050       -5.76705933468496
H           -5.00945235916854        1.46695158701775       -5.60529193419558
H           -6.44448221379470        3.71124436052142       -2.96452201269545
H           -6.61018327044729        3.94822379988676       -4.70077610674278
H           -6.79455592209359        2.33371502826190       -4.02508381424573
H           -2.17964195026350        2.21952877779857       -3.94742371694876
H           -1.10531076658812        0.72800182192367       -2.36332482252352
H           -0.34260347266566        0.92156915973250       -0.12244273951582
