111
 energy: -152.351856130002 gnorm: 0.000055716152 xtb: 6.7.1 (edcfbbe)
C            8.26617867313322        1.45559816062681       -1.31275626345823
C            7.42412967160021        0.29130224938224       -1.84384249880117
C            8.11795649340717       -1.02070298317475       -1.44588736496543
C            7.36410218450693        0.40416496655904       -3.37497288887026
C            6.00922042608376        0.28914197502147       -1.28713133051767
C            5.12466659004624       -0.72248335638904       -1.68595246216100
C            3.82823614311015       -0.80877393471262       -1.22136825030116
C            3.39771395841394        0.14258810411475       -0.30688438304865
C            4.25865801099209        1.19082405757191        0.08743434989277
C            5.55371345183507        1.25875232769036       -0.39936901619586
C            3.49843831268017        2.02125712350082        0.98815276355294
C            3.80199650296462        3.17221738211567        1.69660572796694
C            2.84217555254483        3.74707978079910        2.52303013669141
C            3.10480947572411        5.01448467681553        3.32141535609667
C            2.95443914358404        4.70544349273676        4.81899904271966
C            2.08707649791909        6.08871308669750        2.90759560179258
C            4.51050369788444        5.57715749633130        3.08955591607918
C            1.59119283585065        3.12427423761318        2.62884875683922
C            1.26243624553151        1.97723527110761        1.93434455124678
C            2.21900723400571        1.43070621915704        1.08948016523569
N            2.16961416633962        0.30156698390254        0.29819922123787
C            1.07844042842625       -0.57197586549759        0.18585906225784
C            1.26811063564081       -1.92880169938511        0.39389602281120
C            0.18207660834359       -2.82133543235350        0.32536714295143
C            0.29338983864168       -4.24096914501071        0.59656099895970
O           -0.71546969850800       -4.91224848019038        0.97477230898136
C            1.57619089467268       -4.91298918689873        0.44702807381306
C            1.85714102561859       -6.08370005924317        1.18186102694776
C            3.05816660224962       -6.73405689136209        1.00836018997659
C            3.96386992619635       -6.22168217118637        0.08367183550964
N            3.68601584372339       -5.15382551787695       -0.65432661087110
C            2.54706197622764       -4.52553417742740       -0.49588619593259
C           -1.09997772832563       -2.28369797865274        0.09533199431422
C           -1.28226310459006       -0.92714992085306       -0.09691907912600
N           -2.56982919479582       -0.42737242794007       -0.33437660801270
C           -3.69308315728798       -0.72040614095376        0.40999412032163
C           -3.83163008888064       -1.48861955436197        1.55851944747902
C           -5.08732812491908       -1.58509281710374        2.12366431627151
C           -6.21293647926521       -0.93709624308734        1.59637243392225
C           -7.55460550043043       -1.10908544376593        2.29135940987773
C           -8.68382525869673       -0.34411553584714        1.59393881562105
C           -7.92558502947176       -2.60002799169423        2.30409196709556
C           -7.44382540739310       -0.58876265843694        3.73288951616195
C           -6.05521900237970       -0.15107607838434        0.45966099250565
C           -4.80678189019319       -0.03946796631019       -0.13010351148831
C           -4.31969040452364        0.69150418096858       -1.27353112828601
C           -4.93474616548874        1.51681147788560       -2.20051675456084
C           -4.18552629191588        2.07654558448591       -3.23021056467554
C           -4.79454877753868        2.99489284560363       -4.27820585620396
C           -4.07976896394585        4.35428140719835       -4.23001321216656
C           -4.61532386203731        2.36190825604854       -5.66673846964488
C           -6.29067240833287        3.23554371559487       -4.05443168951964
C           -2.81967949620119        1.77154526005113       -3.30592177989893
C           -2.18178953486787        0.95260922225606       -2.39593013333597
C           -2.93565176411628        0.42054565119861       -1.35821193501505
C           -0.19204361371035       -0.05365855583706       -0.07321862161213
H            9.26660121291294        1.39964564148557       -1.73703871044968
H            8.35916679608528        1.40977471837784       -0.23008062234864
H            7.83547703659088        2.41301200428894       -1.59688235015211
H            7.59781574313010       -1.88556259122507       -1.84810243930255
H            8.14861771950340       -1.11689312596904       -0.36218918685513
H            9.13865080761606       -1.03165762909831       -1.82238863932423
H            8.37117938030812        0.43303542487503       -3.78543571352512
H            6.84213718927542       -0.44013164560883       -3.81642730506156
H            6.84642505175200        1.31629776006054       -3.66549120988749
H            5.45577602552717       -1.47258773553532       -2.38673496390652
H            3.17174845426495       -1.59191313596734       -1.56618866318860
H            6.18748210604122        2.06790227093986       -0.07864293648420
H            4.78500698647887        3.59944920950031        1.59553350071884
H            1.94835557222114        4.37264576765531        5.05860021729078
H            3.65131476449699        3.92326554850883        5.11407402878206
H            3.16682681129391        5.59631720168702        5.40624658009896
H            2.17330645800073        6.29906313877053        1.84333651606104
H            1.06799222907953        5.77220076387071        3.11119204820625
H            2.27333851726318        7.00877418135497        3.45737566551010
H            4.63677367301239        6.48504847883830        3.67592659939546
H            4.66318829159521        5.83046704056911        2.04292564259669
H            5.27372286608852        4.86852638420048        3.40298371394178
H            0.84366116041629        3.54671671060983        3.28201879131114
H            0.29461608669884        1.51626161857177        2.05945930295293
H            2.24540570858122       -2.28641002516950        0.67869340751354
H            1.11702580040346       -6.44591989435138        1.88095449038805
H            3.29608016126018       -7.62367384148847        1.57192913215428
H            4.92540376620359       -6.68203098602538       -0.09307809485386
H            2.36491127516458       -3.70331525185858       -1.17348981397607
H           -1.93469313413359       -2.96620305629346        0.04564996748359
H           -2.98812102586241       -1.99725126114464        2.00048902820751
H           -5.19073023655540       -2.18854692626950        3.01207299947779
H           -9.61615352543484       -0.51100747572168        2.12956193483866
H           -8.81836652022004       -0.69074885723912        0.57187575203600
H           -8.48782555105219        0.72560335460809        1.58848946644839
H           -7.99182588418048       -2.98066526567380        1.28659807854371
H           -7.18763422739092       -3.19095649230256        2.83951331048094
H           -8.88965108920179       -2.74007049828502        2.78847552806724
H           -8.40220442945736       -0.68625463503150        4.23828962910652
H           -7.15775883733105        0.46123555919672        3.73339118567090
H           -6.70254442294044       -1.14414704809973        4.30064072425294
H           -6.88484162215515        0.37970848092448        0.02466626145353
H           -5.99051817812408        1.70574168816047       -2.10692934998721
H           -3.02100391837185        4.25626890573879       -4.45260917908794
H           -4.18161288643184        4.79795215620169       -3.24150275106258
H           -4.51899171895068        5.03175702208963       -4.95914977374430
H           -5.06294689326784        2.99901048748940       -6.42652404016848
H           -3.56553723470640        2.22705987297021       -5.91174287189642
H           -5.10135037932176        1.38878175486390       -5.70269392845262
H           -6.47247338703344        3.70335037709565       -3.08954881264287
H           -6.66820598249118        3.90273230604770       -4.82668652935485
H           -6.85081345043335        2.30516637206980       -4.11401382962168
H           -2.22961608993277        2.18428020738967       -4.10923596267374
H           -1.13210057970390        0.72531854082644       -2.50115298495964
H           -0.33090313289167        1.00348175639294       -0.22838596576722
