  74
       -122.95762837
 N         -0.0021008665        1.0297035387       -0.5310830365
 C          0.0033058109       -0.1320863755       -0.5701621566
 C          0.0018187377       -1.5120066567       -0.6300684965
 C         -1.2316489800       -2.2417694097       -0.7574302582
 C         -2.5154591946       -1.6151769322       -0.5073957395
 C         -3.6403487598       -1.9311153393       -1.2842898120
 C         -4.8482780626       -1.3095795437       -1.0687838518
 C         -4.9730977133       -0.3534593271       -0.0606634212
 N         -6.2049864200        0.3119551701        0.1446947407
 C         -6.3010405307        1.6836584271       -0.0497002349
 C         -5.2223522676        2.4506641502       -0.4860521057
 C         -5.3573048628        3.8150430740       -0.6668133608
 C         -6.5693459337        4.4407154182       -0.4271671910
 C         -7.6601449332        3.6910036766       -0.0200910576
 C         -7.5340872424        2.3241965346        0.1626019574
 O         -8.6557745886        1.6381095020        0.5380501258
 C         -8.5458856698        0.2889144977        0.7239743597
 C         -9.6860901590       -0.3918048495        1.1161062190
 C         -9.6359598269       -1.7562397534        1.3481677942
 C         -8.4368553741       -2.4335457868        1.2034587376
 C         -7.2938430220       -1.7613914917        0.8108094454
 C         -7.3301748149       -0.3939484925        0.5440740507
 C         -3.8710919704       -0.0473933124        0.7382736325
 C         -2.6652225635       -0.6689151658        0.5168558277
 C         -1.1491308123       -3.5762602518       -1.1005877791
 N         -0.0037797260       -4.2316560298       -1.2617422598
 C          1.1432497457       -3.5832992585       -1.0923560939
 C          1.2329327950       -2.2491114325       -0.7476255402
 C          2.5178809677       -1.6302217433       -0.4891845885
 C          3.6508389457       -1.9639645005       -1.2475563704
 C          4.8587089311       -1.3438814214       -1.0288295910
 C          4.9754726623       -0.3692845439       -0.0375538054
 N          6.2042328040        0.3048464490        0.1599714661
 C          6.3018908975        1.6667815790       -0.0919903901
 C          5.2234485616        2.4160398762       -0.5584616965
 C          5.3608395867        3.7708216017       -0.7996793506
 C          6.5748822093        4.4036900354       -0.5908723921
 C          7.6646561211        3.6707546806       -0.1517409971
 C          7.5362459878        2.3136862034        0.0918452842
 O          8.6566080986        1.6426110140        0.4974501650
 C          8.5442915269        0.3027640376        0.7415409127
 C          9.6826570502       -0.3633740779        1.1628817212
 C          9.6289203843       -1.7167140579        1.4523377378
 C          8.4286357209       -2.3973385345        1.3347235107
 C          7.2875609951       -1.7401019651        0.9122899061
 C          7.3274850089       -0.3849001604        0.5894489506
 C          3.8670171898       -0.0479698842        0.7463481939
 C          2.6618213528       -0.6699338637        0.5235000345
 H         -3.5449218332       -2.6445569434       -2.0886493311
 H         -5.7003658909       -1.5373945688       -1.6930260013
 H         -4.2779837550        1.9718247470       -0.6869215993
 H         -4.5058763844        4.3870796820       -1.0005523610
 H         -6.6724539275        5.5051447966       -0.5651617176
 H         -8.6223634638        4.1435859310        0.1579585815
 H        -10.5991123438        0.1685206205        1.2375780672
 H        -10.5277503775       -2.2814136880        1.6505447370
 H         -8.3844643460       -3.4929694999        1.4002201852
 H         -6.3599635953       -2.2917511472        0.7154431431
 H         -3.9755777010        0.6756679363        1.5338544634
 H         -1.8230737408       -0.4338967509        1.1472401705
 H         -2.0419252260       -4.1797724761       -1.1943567881
 H          2.0327219188       -4.1927178854       -1.1802372791
 H          3.5618933515       -2.6895764132       -2.0416763774
 H          5.7173011462       -1.5859126904       -1.6387558587
 H          4.2774945749        1.9309986590       -0.7355291935
 H          4.5095735301        4.3290557581       -1.1564078985
 H          6.6795908936        5.4606188480       -0.7769799706
 H          8.6278525786        4.1291563324        0.0049833933
 H         10.5968854177        0.1995375699        1.2612839983
 H         10.5191907665       -2.2303590982        1.7782367476
 H          8.3735740098       -3.4473350167        1.5761996181
 H          6.3522796445       -2.2713013523        0.8361096525
 H          3.9659519458        0.6884107450        1.5303996760
 H          1.8147054353       -0.4227853807        1.1424612479
