  49
  -72.9168764692000       0.302090090807742      !
 O          4.1717265347       -0.6120009924       -0.2816080308
 B          2.8450530033       -0.7787368071       -0.0341800086
 O          2.0418428529       -1.1230742504       -1.0619724000
 C          2.1775093124       -0.6174242729        1.3870112808
 C          2.9261082913       -0.8095774258        2.5481429055
 C          2.3574133224       -0.7035137497        3.8041853165
 C          1.0137553565       -0.3922115806        3.9173871289
 C          0.2583812596       -0.1926550108        2.7756853280
 C          0.8155494203       -0.3029868000        1.5056396348
 Si        -0.2730413830        0.0211473551       -0.0156216634
 C          0.5660952744        1.2523063310       -1.1896551875
 C          0.3550454257        1.2266700050       -2.5632531924
 C          0.9777076145        2.1363581084       -3.3998730406
 C          1.8275396191        3.0942636465       -2.8734750762
 C          2.0510414657        3.1330657174       -1.5073231063
 C          1.4251013944        2.2200892240       -0.6778959066
 C         -0.9127958966       -1.5703661582       -0.8216061647
 C         -0.4083853094       -2.8195108664       -0.4772503593
 C         -0.9096645479       -3.9743984668       -1.0507810455
 C         -1.9314592699       -3.9000237175       -1.9825631258
 C         -2.4527280992       -2.6648662673       -2.3296468616
 C         -1.9490540904       -1.5146834259       -1.7493390067
 C         -1.8433832018        0.9013410117        0.6169535564
 C         -2.9215490692        0.1622261717        1.0951438918
 C         -4.0666442337        0.7811866917        1.5627996212
 C         -4.1570334495        2.1632436210        1.5593427731
 C         -3.0964806651        2.9158238027        1.0842395244
 C         -1.9544958232        2.2876089443        0.6192681972
 H          4.7154644026       -0.3551959562        0.4615727023
 H          2.4741053780       -1.2103925446       -1.9129050842
 H          3.9759434246       -1.0650040444        2.4687535770
 H          2.9579522354       -0.8620039705        4.6885266445
 H          0.5566600311       -0.3037835582        4.8928238186
 H         -0.7881554097        0.0573087511        2.8715214192
 H         -0.2988978000        0.4765997747       -2.9828236807
 H          0.8018353713        2.0993327886       -4.4659077567
 H          2.3150471049        3.8059467475       -3.5242127480
 H          2.7148848752        3.8773599170       -1.0899714127
 H          1.6082778467        2.2531998498        0.3871715459
 H          0.3901266773       -2.8802633626        0.2467137623
 H         -0.5056443133       -4.9371442448       -0.7707446342
 H         -2.3238970888       -4.8006434673       -2.4328222597
 H         -3.2557825174       -2.6007501772       -3.0506172838
 H         -2.3746488592       -0.5559109717       -2.0100419008
 H         -2.8600460674       -0.9167352289        1.0956516663
 H         -4.8918923971        0.1872404559        1.9302149215
 H         -5.0503722527        2.6505461369        1.9228551683
 H         -3.1620635752        3.9948701679        1.0757436746
 H         -1.1340325773        2.8825597665        0.2453364042
  49
  -72.9166606030000       0.240398217407020      !
 O          4.1515517396       -1.1641623243       -0.2273245968
 B          2.8223181004       -0.9809754436       -0.0091412289
 O          1.9914491997       -1.0524413171       -1.0701242140
 C          2.1720748868       -0.6998348645        1.4003115839
 C          2.8994230955       -0.8935807489        2.5751394937
 C          2.3463096839       -0.6600009682        3.8204760010
 C          1.0381281189       -0.2178148527        3.9091425273
 C          0.3018845019       -0.0222957076        2.7544287321
 C          0.8429426745       -0.2588938474        1.4945658184
 Si        -0.2365419645        0.0480615133       -0.0384896042
 C          0.5645942388        1.3153787865       -1.2016513249
 C          0.3267672245        1.3219215563       -2.5710854531
 C          0.9057629103        2.2723376546       -3.3937121165
 C          1.7380332294        3.2400177529       -2.8572947164
 C          1.9903780744        3.2454789859       -1.4956071710
 C          1.4083255397        2.2915753531       -0.6803058750
 C         -0.8729138871       -1.5558069672       -0.8251947744
 C         -1.8807195028       -1.5146449122       -1.7839501224
 C         -2.3817617858       -2.6746691550       -2.3470188124
 C         -1.8886401213       -3.9059308805       -1.9492192213
 C         -0.8979608760       -3.9661660696       -0.9834662980
 C         -0.3981930656       -2.8013099068       -0.4292707520
 C         -1.8268840586        0.8976046406        0.5933101752
 C         -2.8851209008        0.1382743810        1.0849636859
 C         -4.0435086006        0.7342914041        1.5495673078
 C         -4.1684293401        2.1136297582        1.5294915529
 C         -3.1284496755        2.8862539444        1.0411371306
 C         -1.9729291219        2.2806617540        0.5793341641
 H          4.7253706272       -1.0995055097        0.5344501763
 H          2.4081867672       -1.2190962882       -1.9169506766
 H          3.9221671598       -1.2471328529        2.5189267887
 H          2.9309890040       -0.8211973350        4.7148757347
 H          0.5924908298       -0.0279761972        4.8753755211
 H         -0.7179352352        0.3247245177        2.8324504561
 H         -0.3146845498        0.5663973913       -2.9996728461
 H          0.7080835658        2.2605697226       -4.4565474242
 H          2.1897114236        3.9848589863       -3.4967844928
 H          2.6413216322        3.9967333782       -1.0703884831
 H          1.6127556400        2.2996397896        0.3813120149
 H         -2.2868107315       -0.5590571783       -2.0838525544
 H         -3.1623379577       -2.6211145365       -3.0930993607
 H         -2.2794669823       -4.8142655781       -2.3851311190
 H         -0.5168546598       -4.9253967273       -0.6620393172
 H          0.3749106960       -2.8528198193        0.3229762218
 H         -2.7971225552       -0.9388698140        1.0984753100
 H         -4.8527495003        0.1245236996        1.9267697936
 H         -5.0720252931        2.5831886839        1.8911545617
 H         -3.2202912408        3.9633488307        1.0206794866
 H         -1.1688480730        2.8914517767        0.1955015281
  49
  -72.9164367542000       0.189695687249529      !
 O          3.9072112368       -1.9285693152       -0.1201572858
 B          2.7423269067       -1.2469193108        0.0417019452
 O          2.0179957466       -0.9650263553       -1.0619424638
 C          2.1618809019       -0.7628626842        1.4260852105
 C          2.9010529077       -0.8993014330        2.6016379437
 C          2.4137361749       -0.4706790408        3.8221701110
 C          1.1584564801        0.1079056019        3.8851596469
 C          0.4109707286        0.2489376798        2.7298344765
 C          0.8880627346       -0.1771533177        1.4939856365
 Si        -0.1991909014        0.0851168925       -0.0423450761
 C          0.5584844846        1.3788073914       -1.2057808637
 C          1.3062064981        2.4252612241       -0.6738634560
 C          1.8516854748        3.4019045140       -1.4875633080
 C          1.6592096743        3.3485375766       -2.8579561626
 C          0.9237476218        2.3103745543       -3.4046533535
 C          0.3802237940        1.3379888162       -2.5837843935
 C         -0.8184734161       -1.5224957652       -0.8376613011
 C         -1.8115395002       -1.4739409493       -1.8116640500
 C         -2.3082768496       -2.6293287913       -2.3876693760
 C         -1.8259308083       -3.8643616387       -1.9880943322
 C         -0.8515243212       -3.9325216983       -1.0065645830
 C         -0.3566887050       -2.7716444808       -0.4390877296
 C         -1.8217557413        0.8709606027        0.5936041669
 C         -2.0722337190        2.2344210490        0.4860770015
 C         -3.2561384247        2.7861313336        0.9442428085
 C         -4.2201919308        1.9776095920        1.5216472156
 C         -3.9912637219        0.6161516938        1.6347265829
 C         -2.8054696784        0.0743718052        1.1736618707
 H          4.4066514765       -2.1254797003        0.6711321973
 H          2.3839527889       -1.2712611721       -1.8931240948
 H          3.8877182253       -1.3459492221        2.5656337019
 H          3.0087401831       -0.5855349872        4.7168710412
 H          0.7641425944        0.4502121286        4.8315458934
 H         -0.5669147763        0.7038745851        2.7882282919
 H          1.4640203748        2.4710030156        0.3946981666
 H          2.4276769226        4.2079007615       -1.0543044636
 H          2.0829615385        4.1104810010       -3.4964773831
 H          0.7746493775        2.2606251681       -4.4744428582
 H         -0.1846797604        0.5275211126       -3.0199738037
 H         -2.2091241045       -0.5153121221       -2.1130483979
 H         -3.0762636686       -2.5691361701       -3.1461095395
 H         -2.2126145760       -4.7692509840       -2.4346052525
 H         -0.4801557466       -4.8945240283       -0.6820216952
 H          0.4007942469       -2.8317635956        0.3286611880
 H         -1.3265404764        2.8730053947        0.0345160168
 H         -3.4295168420        3.8494255162        0.8505411732
 H         -5.1457541761        2.4050302045        1.8800159015
 H         -4.7404360727       -0.0215545221        2.0826815175
 H         -2.6356015196       -0.9894091820        1.2608315916
  49
  -72.9161510387000       0.140201191600334      !
 O          4.0125915785       -1.6786440227       -0.1780568148
 B          2.7729299671       -1.1538217992        0.0117111449
 O          1.9908925199       -0.9816966733       -1.0747072024
 C          2.1688281763       -0.7418775303        1.4094000851
 C          2.9056674058       -0.9012268646        2.5836277940
 C          2.3933460365       -0.5507573969        3.8187848784
 C          1.1146823362       -0.0279227583        3.8983511921
 C          0.3704356597        0.1383846314        2.7442071467
 C          0.8723795109       -0.2098677626        1.4940049182
 Si        -0.2159871257        0.0753865260       -0.0374348793
 C          0.5556161388        1.3617181999       -1.2002011684
 C          1.3609557106        2.3680879263       -0.6757010094
 C          1.9214618897        3.3351580201       -1.4907819982
 C          1.6856700945        3.3128941679       -2.8550964084
 C          0.8907174697        2.3158439595       -3.3943788161
 C          0.3330879995        1.3526044675       -2.5722074657
 C         -0.8398665824       -1.5340221962       -0.8247729495
 C         -1.8335637147       -1.4953457943       -1.7980943629
 C         -2.3224975957       -2.6562247551       -2.3698312025
 C         -1.8317119309       -3.8864756289       -1.9661402046
 C         -0.8571474261       -3.9446838501       -0.9841705997
 C         -0.3697352256       -2.7786576050       -0.4214300039
 C         -1.8262334075        0.8867668002        0.5968386964
 C         -2.0348067444        2.2597165340        0.5239767428
 C         -3.2104497387        2.8335108194        0.9759710875
 C         -4.2080603569        2.0383908461        1.5136490040
 C         -4.0206732226        0.6682953998        1.5932357341
 C         -2.8430847357        0.1042384088        1.1374319910
 H          4.5553865470       -1.7973028453        0.5996481533
 H          2.3758407110       -1.2419768864       -1.9130331584
 H          3.9078752398       -1.3105719992        2.5363290513
 H          2.9867295030       -0.6839362459        4.7120209778
 H          0.7003323040        0.2521594880        4.8563178857
 H         -0.6247667411        0.5517176301        2.8148651228
 H          1.5529932817        2.3894281684        0.3879589884
 H          2.5433186360        4.1094063860       -1.0632360667
 H          2.1208338093        4.0675536948       -3.4945967479
 H          0.7061575119        2.2909538340       -4.4593580128
 H         -0.2780381275        0.5738167220       -3.0033200103
 H         -2.2384607789       -0.5406644834       -2.1021700217
 H         -3.0907856126       -2.6040716056       -3.1286105145
 H         -2.2114802199       -4.7954515030       -2.4102994832
 H         -0.4787018560       -4.9028880932       -0.6565969374
 H          0.3899084960       -2.8300731290        0.3447520044
 H         -1.2645678659        2.8877019141        0.1006800842
 H         -3.3511396149        3.9033303441        0.9084080382
 H         -5.1272906300        2.4829871028        1.8673905196
 H         -4.7957560547        0.0412457355        2.0115422851
 H         -2.7052010560       -0.9658617825        1.1999697872
  49
  -72.9155802608000       7.663732613707679E-002 !
 O          2.3408045853       -1.3085183922       -1.1642264743
 B          2.8365833833       -0.6403281888       -0.0877675698
 O          4.0544935869       -0.0648083439       -0.2100974103
 C          2.1335475350       -0.5719324280        1.3335268125
 C          2.9190056506       -0.7901754656        2.4646230493
 C          2.3791935712       -0.7769725480        3.7378360775
 C          1.0270924506       -0.5315890387        3.9049647036
 C          0.2361425952       -0.2947410402        2.7960854851
 C          0.7650825344       -0.3139047101        1.5084523373
 Si        -0.3721808339        0.0759474249        0.0432124479
 C          0.5407274639        1.2034601841       -1.1743783550
 C          1.3805336604        2.1983767505       -0.6823633993
 C          2.0670951496        3.0400193423       -1.5380236828
 C          1.9244927645        2.9002653547       -2.9085403375
 C          1.0952968522        1.9133359190       -3.4141785113
 C          0.4119966043        1.0741049144       -2.5525184427
 C         -0.9305015108       -1.5476584874       -0.7752850005
 C         -1.8998435046       -1.5415732915       -1.7742313716
 C         -2.3056987454       -2.7144206225       -2.3846710286
 C         -1.7520608867       -3.9241912004       -1.9985156447
 C         -0.8023428069       -3.9530731890       -0.9913850212
 C         -0.3982125533       -2.7750916782       -0.3871627980
 C         -1.9380927095        0.9565471695        0.6509556612
 C         -2.0407904270        2.3436009102        0.6413501825
 C         -3.1809929709        2.9778784920        1.1012275899
 C         -4.2434663407        2.2308946835        1.5816753993
 C         -4.1592073261        0.8484541780        1.5959845624
 C         -3.0166405027        0.2212993946        1.1336041379
 H          1.4678004212       -1.6882686978       -1.0556104410
 H          4.4465688949       -0.1620135627       -1.0797036379
 H          3.9750449635       -0.9721514415        2.3309145373
 H          3.0108561464       -0.9526790296        4.5965163643
 H          0.5933482304       -0.5165309440        4.8946402181
 H         -0.8157633299       -0.0857106306        2.9277889226
 H          1.5050948555        2.3044447496        0.3852173689
 H          2.7174661330        3.8041149647       -1.1371472736
 H          2.4605702038        3.5551649473       -3.5798982347
 H          0.9844657643        1.7963311143       -4.4828596814
 H         -0.2228125166        0.2996542488       -2.9563913594
 H         -2.3489250497       -0.6030597297       -2.0653910377
 H         -3.0573783043       -2.6880730950       -3.1603021053
 H         -2.0667248633       -4.8411657231       -2.4741822772
 H         -0.3783074643       -4.8949156276       -0.6744526554
 H          0.3273552460       -2.8089986225        0.4137137629
 H         -1.2160866861        2.9300307124        0.2632004861
 H         -3.2428652701        4.0565471520        1.0848653424
 H         -5.1348435680        2.7234742621        1.9414966079
 H         -4.9860782144        0.2601376249        1.9674408851
 H         -2.9572332576       -0.8578575122        1.1409791392
  49
  -72.9151949819000       5.097748679829731E-002 !
 O         -0.6592752026       -2.4701632304        1.5729273620
 B          0.1377823630       -1.7985524276        2.4425555582
 O         -0.1144878618       -1.9545968159        3.7662975205
 C          1.3901810205       -0.8998983942        2.0605744596
 C          2.5038684070       -0.9871260307        2.8969425284
 C          3.6549863922       -0.2593039024        2.6605951387
 C          3.7098162167        0.5927800544        1.5714052863
 C          2.6112230045        0.7050627068        0.7403369379
 C          1.4471608021       -0.0286787084        0.9605370570
 Si         0.0050189349        0.2276967371       -0.2443759490
 C          0.4958706163        1.5270185978       -1.5388689993
 C          0.4194997264        2.8828531171       -1.2332283882
 C          0.7784079450        3.8455792363       -2.1585776173
 C          1.2212384569        3.4663839425       -3.4152273220
 C          1.3008178166        2.1221027421       -3.7371317423
 C          0.9409055056        1.1645980118       -2.8053138748
 C         -0.3084563020       -1.3984404386       -1.1848941670
 C         -1.5795745503       -1.7717660342       -1.6127873048
 C         -1.7786574952       -2.9447495529       -2.3186538342
 C         -0.7048198977       -3.7686685592       -2.6123061270
 C          0.5674105010       -3.4145084424       -2.1939886949
 C          0.7605282589       -2.2411591118       -1.4876287133
 C         -1.5713089373        0.8683211300        0.5891673805
 C         -2.6158397950        1.3594100807       -0.1906171155
 C         -3.7758198227        1.8392397742        0.3890680668
 C         -3.9094631367        1.8429791802        1.7677116062
 C         -2.8743602233        1.3719880652        2.5575865961
 C         -1.7163183466        0.8915625462        1.9716250253
 H         -0.4733954489       -2.3451144157        0.6391005412
 H         -0.8566008825       -2.5317233245        3.9553084840
 H          2.4514529716       -1.6449069293        3.7514422279
 H          4.5022227270       -0.3526069712        3.3243603793
 H          4.6010582674        1.1709329218        1.3735456772
 H          2.6538676104        1.3778253177       -0.1037131690
 H          0.0717148971        3.1819984030       -0.2546537542
 H          0.7128129115        4.8931667085       -1.9019735813
 H          1.5013529239        4.2158722839       -4.1407761212
 H          1.6429965916        1.8202150110       -4.7166796526
 H          1.0015030859        0.1175255816       -3.0635137536
 H         -2.4200547443       -1.1356187163       -1.3821709811
 H         -2.7721698309       -3.2177445278       -2.6432328750
 H         -0.8582758840       -4.6833915503       -3.1652219736
 H          1.4083282084       -4.0535269487       -2.4210511397
 H          1.7530594406       -1.9695529184       -1.1583127510
 H         -2.5098306007        1.3753782008       -1.2661202343
 H         -4.5762982338        2.2140646597       -0.2326315327
 H         -4.8142495971        2.2173508883        2.2236910112
 H         -2.9685540456        1.3817940882        3.6339258865
 H         -0.9128148890        0.5308688982        2.5939325423
