  49
        -73.20977399
 O          2.5104292450       -1.4484635165       -0.3830250905
 B          2.8574427700       -0.3836789102        0.3895381064
 O          4.0524847473        0.2036859366        0.1521141080
 C          2.0061000625        0.1570635682        1.6150291393
 C          2.6775560818        0.4497258098        2.8013886119
 C          2.0065869259        0.8974215041        3.9247815843
 C          0.6342080580        1.0724886016        3.8773449012
 C         -0.0459350190        0.8049113902        2.7038375088
 C          0.6160400184        0.3453511429        1.5686118670
 Si        -0.3778709384        0.0548814015       -0.0188543307
 C          0.6031770241        0.7114602572       -1.4999563013
 C          1.3378331865        1.8856959648       -1.3633438403
 C          2.0696160611        2.3963512027       -2.4195675401
 C          2.0790725515        1.7375035012       -3.6377681801
 C          1.3560081318        0.5663804306       -3.7891423297
 C          0.6267168754        0.0604917827       -2.7280688539
 C         -0.7684143964       -1.7985686866       -0.1919288464
 C         -1.6262784170       -2.2524412805       -1.1897383340
 C         -1.9088981150       -3.5987848363       -1.3326055769
 C         -1.3417113603       -4.5214089680       -0.4687539650
 C         -0.5031095537       -4.0871207216        0.5437930324
 C         -0.2217941133       -2.7385391339        0.6788319937
 C         -2.0394808655        0.9640352467        0.0779932900
 C         -2.2069268909        2.2305437811       -0.4719840974
 C         -3.4183080305        2.8927117739       -0.3828414822
 C         -4.4884766947        2.2957441613        0.2621649279
 C         -4.3400620594        1.0337073673        0.8132387083
 C         -3.1264100366        0.3773603693        0.7192434363
 H          1.6500412396       -1.8313530405       -0.2061858968
 H          4.5382082282       -0.1814199970       -0.5794274239
 H          3.7493039655        0.3207144331        2.8317989855
 H          2.5519464838        1.1133462385        4.8320641606
 H          0.0983800539        1.4237100594        4.7476036308
 H         -1.1146621475        0.9584579100        2.6615128836
 H          1.3439895646        2.3974762555       -0.4122720021
 H          2.6367711939        3.3073159906       -2.2930580848
 H          2.6509101264        2.1329136024       -4.4645974027
 H          1.3641294816        0.0452618487       -4.7359382765
 H          0.0758308276       -0.8598366099       -2.8521252858
 H         -2.0866255447       -1.5351666572       -1.8537063512
 H         -2.5750630762       -3.9311767446       -2.1155869191
 H         -1.5602114158       -5.5732015778       -0.5787742831
 H         -0.0701963640       -4.7998423830        1.2307670340
 H          0.4161367406       -2.4057840400        1.4858758904
 H         -1.3760166873        2.6980403563       -0.9799885774
 H         -3.5297170614        3.8757969948       -0.8172991428
 H         -5.4353739965        2.8104978925        0.3333927372
 H         -5.1723292043        0.5617584807        1.3156402211
 H         -3.0164791557       -0.6097798657        1.1454271979
  49
        -73.20940791
 O         -0.9100981201       -1.7686213800        2.2481437876
 B         -0.2115545876       -0.8161249922        2.9170253895
 O         -0.6305829671       -0.4997667649        4.1678713390
 C          1.1001797804       -0.0837400781        2.4022863158
 C          2.0984735267        0.1540938400        3.3479418691
 C          3.2874379721        0.7759901577        3.0158782117
 C          3.4983215348        1.1892415060        1.7119842897
 C          2.5149486824        0.9770368765        0.7642838791
 C          1.3150135866        0.3436214432        1.0818465067
 Si         0.0409793477        0.1267173293       -0.3063560180
 C          0.7208258421        0.8950685532       -1.9039573665
 C          0.6399609391        2.2694697228       -2.1089408589
 C          1.1347296361        2.8506151508       -3.2619377426
 C          1.7213904843        2.0614674443       -4.2377099291
 C          1.8077462392        0.6921939789       -4.0514838923
 C          1.3113022937        0.1181958679       -2.8944591321
 C         -0.1922836343       -1.7331718224       -0.6433487201
 C         -1.4088545438       -2.2607935196       -1.0673495522
 C         -1.5468762445       -3.6115051408       -1.3324910955
 C         -0.4651752001       -4.4627864282       -1.1793754398
 C          0.7532261955       -3.9564488006       -0.7573454694
 C          0.8852784035       -2.6053487305       -0.4926222961
 C         -1.6108998231        0.9865449861        0.0429221826
 C         -2.5378247631        1.1479006214       -0.9842347893
 C         -3.7489959716        1.7765853987       -0.7614235136
 C         -4.0533141816        2.2643262448        0.4987478324
 C         -3.1365096693        2.1251300801        1.5269827692
 C         -1.9264930608        1.4936288402        1.2983200897
 H         -0.6062796549       -1.9776257224        1.3614462375
 H         -1.4042876670       -0.9886714076        4.4540271961
 H          1.9239660958       -0.1603053876        4.3659266957
 H          4.0428054202        0.9414380700        3.7702959812
 H          4.4210756391        1.6791802740        1.4359291820
 H          2.6788263466        1.3089302216       -0.2505262483
 H          0.1802907081        2.8875388761       -1.3508219340
 H          1.0631664929        3.9196324698       -3.4021823141
 H          2.1079105231        2.5120852138       -5.1400202049
 H          2.2619104100        0.0710957389       -4.8102384686
 H          1.3781199031       -0.9510108683       -2.7565016004
 H         -2.2557986111       -1.6023902629       -1.1833890005
 H         -2.4985263678       -4.0028304828       -1.6613848333
 H         -0.5707215818       -5.5169380773       -1.3881985362
 H          1.6000913898       -4.6162722756       -0.6369423122
 H          1.8353310728       -2.2136696276       -0.1589690629
 H         -2.2982239291        0.7851058848       -1.9737656418
 H         -4.4563785450        1.8902982680       -1.5704037678
 H         -4.9985039850        2.7561495678        0.6760497981
 H         -3.3638679843        2.5125792085        2.5096659694
 H         -1.2158419186        1.3934119816        2.1032523199
  49
        -73.20848197
 O          4.2026792836       -0.3179216073        0.3058811356
 B          2.8668400329       -0.4903197721        0.4926871481
 O          2.1938186039       -1.2641253928       -0.3838623587
 C          2.0463103645        0.1390513732        1.6851820196
 C          2.6767403805        0.4640018737        2.8862295134
 C          1.9744428994        0.9883811224        3.9558605998
 C          0.6129744476        1.2045573765        3.8341564415
 C         -0.0265870637        0.8932025695        2.6476004545
 C          0.6659410202        0.3586215038        1.5658179149
 Si        -0.2705733819       -0.0094940567       -0.0440766574
 C          0.6276438761        0.7528666228       -1.5307741455
 C          0.5639704920        0.1922798054       -2.8010728738
 C          1.2270174278        0.7674635344       -3.8709821486
 C          1.9697823473        1.9214178253       -3.6877281126
 C          2.0459778517        2.4923819969       -2.4283536485
 C          1.3805904607        1.9111710821       -1.3640557474
 C         -0.7448592587       -1.8355128731       -0.2244105322
 C         -0.2202783554       -2.8143980479        0.6122328527
 C         -0.6024300379       -4.1383035464        0.4888715327
 C         -1.5227426429       -4.5082679695       -0.4775470811
 C         -2.0631109544       -3.5447350468       -1.3126570340
 C         -1.6790692822       -2.2224034989       -1.1810646560
 C         -1.9391804593        0.9082952243        0.0754179716
 C         -3.0250752750        0.3164025178        0.7140836545
 C         -4.2414019118        0.9669744823        0.8158803834
 C         -4.3970306296        2.2322405448        0.2744517094
 C         -3.3296008842        2.8362252450       -0.3679410489
 C         -2.1162031539        2.1778725342       -0.4639581245
 H          4.6521540925        0.2456820933        0.9337669234
 H          2.7170179924       -1.6296607204       -1.0988505630
 H          3.7401212730        0.2872746799        2.9943396728
 H          2.4853594004        1.2272447360        4.8776708967
 H          0.0519375752        1.6160681447        4.6612772928
 H         -1.0881628692        1.0713875803        2.5569784369
 H         -0.0054350883       -0.7131208431       -2.9504497069
 H          1.1664242879        0.3155841080       -4.8512195645
 H          2.4884833820        2.3728664192       -4.5212503414
 H          2.6257275768        3.3924559292       -2.2780155735
 H          1.4487281777        2.3596933553       -0.3826263681
 H          0.4994964459       -2.5292922684        1.3646125694
 H         -0.1845084408       -4.8859334716        1.1483586124
 H         -1.8219544080       -5.5419563921       -0.5766290060
 H         -2.7878742318       -3.8259924198       -2.0639346812
 H         -2.1202671408       -1.4729546906       -1.8229466220
 H         -2.9123485209       -0.6729754921        1.1340412874
 H         -5.0713617487        0.4884452399        1.3168565290
 H         -5.3460124347        2.7433580749        0.3509476225
 H         -3.4455425283        3.8223177802       -0.7956014317
 H         -1.2903575887        2.6544606874       -0.9716925426
  49
        -73.20839554
 O          4.2001359989       -0.8229892619        0.5691032433
 B          2.8484928541       -0.6797926741        0.5931662694
 O          2.1378627144       -1.2121074747       -0.4230921395
 C          2.0417097503        0.0568194827        1.7311104891
 C          2.6493322625        0.3787201788        2.9451814617
 C          1.9584264832        1.0176158124        3.9580084706
 C          0.6297876463        1.3529039455        3.7655765873
 C          0.0111329645        1.0394799030        2.5686312658
 C          0.6917250489        0.3913579728        1.5426149086
 Si        -0.2330847721        0.0106879794       -0.0728060147
 C          0.6287287417        0.8082616718       -1.5634472016
 C          0.5362329289        0.2801414016       -2.8458230564
 C          1.1556497133        0.8951826101       -3.9197357858
 C          1.8829415421        2.0576674970       -3.7286918970
 C          1.9901404565        2.5951347081       -2.4568671815
 C          1.3686127970        1.9738720238       -1.3886118081
 C         -0.7110959023       -1.8172368851       -0.2354848415
 C         -1.6132749957       -2.2215208584       -1.2148752863
 C         -2.0001369897       -3.5446793595       -1.3303540353
 C         -1.4972550418       -4.4916289426       -0.4541034085
 C         -0.6119768731       -4.1037106255        0.5376396516
 C         -0.2256627484       -2.7795313192        0.6430009794
 C         -1.9173176664        0.9032816933        0.0564939559
 C         -2.9865299633        0.3012830636        0.7141819868
 C         -4.2127557680        0.9320672054        0.8211236656
 C         -4.3961791840        2.1876062910        0.2656419133
 C         -3.3460436851        2.8016341237       -0.3955548291
 C         -2.1225344315        2.1628315396       -0.4964904311
 H          4.6871791975       -0.4303203588        1.2918407335
 H          2.6483812245       -1.6504765685       -1.1055601063
 H          3.6870405920        0.1142730996        3.1106914152
 H          2.4523657303        1.2525490170        4.8900038940
 H          0.0769644051        1.8552186045        4.5467961173
 H         -1.0256735949        1.3063342944        2.4259301285
 H         -0.0222823459       -0.6304752501       -3.0033105085
 H          1.0715998000        0.4686882318       -4.9096209590
 H          2.3657640349        2.5414624871       -4.5656946904
 H          2.5586299297        3.5013142351       -2.3000871017
 H          1.4596622884        2.3970382306       -0.3978900526
 H         -2.0277172693       -1.4851668363       -1.8886852208
 H         -2.6994997717       -3.8391176292       -2.1004197769
 H         -1.7992098370       -5.5257052548       -0.5398135177
 H         -0.2244581920       -4.8373636437        1.2306499166
 H          0.4655367645       -2.4814940369        1.4173621475
 H         -2.8525556841       -0.6807745673        1.1452035543
 H         -5.0292230831        0.4453139293        1.3363144790
 H         -5.3528197384        2.6836466775        0.3465996028
 H         -3.4831031000        3.7807227813       -0.8332612373
 H         -1.3105412210        2.6476168828       -1.0185904930
  49
        -73.20820083
 O          4.0695076324       -1.3119903532        0.8174534256
 B          2.7973875305       -0.8506525974        0.6867282288
 O          2.1319627744       -1.1564385654       -0.4469468961
 C          2.0297237521        0.0053774521        1.7665783598
 C          2.6402245401        0.3522718240        2.9724340955
 C          1.9837375577        1.0978535336        3.9337081525
 C          0.6849203877        1.5132725844        3.6988279976
 C          0.0646136550        1.1797364891        2.5082050634
 C          0.7123413853        0.4298006753        1.5313335087
 Si        -0.2133706199        0.0392418524       -0.0816577770
 C          0.6301375389        0.8540190851       -1.5738636150
 C          1.3346169736        2.0417671615       -1.4023541346
 C          1.9428937113        2.6748620433       -2.4714374067
 C          1.8577065255        2.1274284051       -3.7404948580
 C          1.1647936384        0.9435787641       -3.9282608491
 C          0.5584576852        0.3168902539       -2.8538471032
 C         -0.6859592249       -1.7902934071       -0.2513162373
 C         -1.5688094968       -2.1934747465       -1.2484644879
 C         -1.9479418067       -3.5175335303       -1.3777175114
 C         -1.4571618883       -4.4670776368       -0.4974588764
 C         -0.5935083832       -4.0801941107        0.5134081951
 C         -0.2151076025       -2.7548471233        0.6322906908
 C         -1.9128613235        0.9030179771        0.0567480074
 C         -2.1647031510        2.1294668063       -0.5483979551
 C         -3.4035871089        2.7387797408       -0.4505230024
 C         -4.4225141121        2.1278232815        0.2601528915
 C         -4.1925572146        0.9049027238        0.8685891269
 C         -2.9516997957        0.3033217882        0.7636833134
 H          4.5287650359       -1.0901837250        1.6257947943
 H          2.6153694400       -1.6803570306       -1.0876876746
 H          3.6565750881        0.0327029458        3.1702432168
 H          2.4812545656        1.3531874448        4.8583663023
 H          0.1585546690        2.0978754415        4.4397806477
 H         -0.9474678994        1.5122402276        2.3310138475
 H          1.4090316173        2.4728726705       -0.4137607265
 H          2.4845296095        3.5977863915       -2.3171549718
 H          2.3305374936        2.6200122835       -4.5781291116
 H          1.0980860621        0.5092701488       -4.9160810310
 H          0.0280422037       -0.6107417628       -3.0087721830
 H         -1.9745403556       -1.4550332508       -1.9251525045
 H         -2.6307009958       -3.8110122124       -2.1628561137
 H         -1.7513569672       -5.5022790349       -0.5951618896
 H         -0.2164703318       -4.8151510803        1.2108044138
 H          0.4582325297       -2.4585861187        1.4232265247
 H         -1.3776588428        2.6111568977       -1.1099578732
 H         -3.5769658650        3.6920890167       -0.9301201811
 H         -5.3910728516        2.6006191976        0.3385185485
 H         -4.9839070807        0.4218466168        1.4247790546
 H         -2.7805520065       -0.6523356649        1.2385144109
  49
        -73.20810161
 O          3.9608528353       -1.5484349657        0.9560915228
 B          2.7626400160       -0.9413848398        0.7473408919
 O          2.1532093856       -1.1405771024       -0.4405425193
 C          2.0190812990       -0.0232237355        1.7922552560
 C          2.6304705245        0.3383643916        2.9932432894
 C          1.9991241762        1.1513417690        3.9159366821
 C          0.7253664419        1.6198340318        3.6466576137
 C          0.1033639504        1.2693767223        2.4618817616
 C          0.7261285651        0.4523433389        1.5232053740
 Si        -0.1962106332        0.0487930632       -0.0885190965
 C          0.6385964017        0.8719473279       -1.5807671323
 C          1.2878878419        2.0920219517       -1.4166680763
 C          1.8847523924        2.7354098171       -2.4859162429
 C          1.8441567328        2.1655039288       -3.7474354900
 C          1.2083666594        0.9485328653       -3.9272051293
 C          0.6125203966        0.3118803743       -2.8527662704
 C         -0.6700930712       -1.7791905658       -0.2739064620
 C         -1.5526030956       -2.1660484715       -1.2782650583
 C         -1.9440266199       -3.4851832476       -1.4201180189
 C         -1.4659392455       -4.4466886620       -0.5457245983
 C         -0.6021138812       -4.0765591891        0.4712927849
 C         -0.2118415272       -2.7556292614        0.6030493642
 C         -1.9041723088        0.8945120484        0.0608955921
 C         -2.1880058586        2.0997057930       -0.5717751368
 C         -3.4328427088        2.6945365897       -0.4600252526
 C         -4.4256558078        2.0892787471        0.2912985877
 C         -4.1639033214        0.8864341606        0.9264467698
 C         -2.9172144782        0.2998675251        0.8084631247
 H          4.3778631876       -1.4022387188        1.8040787410
 H          2.6175196734       -1.7050358149       -1.0605179560
 H          3.6299151283       -0.0173554469        3.2143154092
 H          2.4970401107        1.4186847849        4.8369789432
 H          0.2191399036        2.2582417834        4.3569211991
 H         -0.8900727371        1.6416861718        2.2591338691
 H          1.3270818543        2.5407891178       -0.4338693520
 H          2.3823714133        3.6838490901       -2.3377690842
 H          2.3084114621        2.6659540292       -4.5852003835
 H          1.1781020856        0.4962295743       -4.9088673221
 H          0.1263884090       -0.6409825698       -3.0009655494
 H         -1.9476830568       -1.4181678411       -1.9509177607
 H         -2.6267256805       -3.7653047932       -2.2101258036
 H         -1.7706582038       -5.4779482351       -0.6523600266
 H         -0.2354786894       -4.8209002174        1.1642763755
 H          0.4594086666       -2.4727582574        1.4006960925
 H         -1.4199822757        2.5782682778       -1.1624302187
 H         -3.6313070373        3.6323544991       -0.9605690270
 H         -5.3987401763        2.5507642655        0.3802923698
 H         -4.9350218843        0.4071006302        1.5131388364
 H         -2.7215116660       -0.6410696146        1.3028531011
  49
        -73.20663582
 O          3.0004753671       -0.5370194676       -0.6724061172
 B          2.8867337624       -0.8034631669        0.6568950698
 O          3.6232828707       -1.8225703175        1.1585911342
 C          2.0519259136        0.0612540299        1.6915754310
 C          2.7229528577        0.4135215684        2.8638164584
 C          2.1483302624        1.2272490505        3.8216488541
 C          0.8695247185        1.7139717415        3.6174457015
 C          0.1808367930        1.3583918526        2.4732526052
 C          0.7414552227        0.5296387298        1.5018147234
 Si        -0.3361718894        0.0739018772       -0.0001137019
 C          0.4688253653        0.7683130191       -1.5771963044
 C          0.3534344696        0.1162862462       -2.8006827043
 C          0.9347501729        0.6363305581       -3.9433811863
 C          1.6432354387        1.8249945258       -3.8822562685
 C          1.7666301611        2.4903250229       -2.6734414505
 C          1.1842347584        1.9646850218       -1.5338752004
 C         -0.6815653006       -1.7823338089       -0.2213063441
 C          0.3414041787       -2.6763914866       -0.5265087722
 C          0.0866375133       -4.0251945495       -0.6972608363
 C         -1.2035734429       -4.5117152119       -0.5692954608
 C         -2.2352767798       -3.6361641174       -0.2776160633
 C         -1.9745000323       -2.2880966487       -0.1085476644
 C         -2.0166008326        0.9410269001        0.1742666087
 C         -2.8500328324        0.6639889069        1.2555565308
 C         -4.0851744819        1.2724927692        1.3838629022
 C         -4.5137558850        2.1765708319        0.4257960771
 C         -3.6989212501        2.4647809689       -0.6554190067
 C         -2.4645295133        1.8506957362       -0.7765017926
 H          2.4383926161        0.1640918164       -1.0129868663
 H          4.1639554298       -2.2785059505        0.5106880500
 H          3.7220522901        0.0331872317        3.0151204874
 H          2.6948231434        1.4823388120        4.7178753411
 H          0.4070730295        2.3614181908        4.3486262861
 H         -0.8174181847        1.7399961765        2.3254653686
 H         -0.1987767127       -0.8101357838       -2.8516449254
 H          0.8344630363        0.1167267515       -4.8851350987
 H          2.0956523400        2.2332430887       -4.7736758154
 H          2.3141360839        3.4202293757       -2.6217075745
 H          1.2816035641        2.4848674414       -0.5915622811
 H          1.3473717321       -2.3113805158       -0.6386408782
 H          0.8968350405       -4.7003561204       -0.9330596248
 H         -1.4040078770       -5.5648264018       -0.7014287243
 H         -3.2468449335       -4.0043165518       -0.1832899612
 H         -2.7895851057       -1.6154122500        0.1089058350
 H         -2.5212291827       -0.0387059943        2.0082380110
 H         -4.7151362857        1.0430704938        2.2314422209
 H         -5.4779958254        2.6534169538        0.5226036422
 H         -4.0275772036        3.1678561214       -1.4072765556
 H         -1.8357090135        2.0791498360       -1.6242626243
