  68
  -102.629494844100       0.563916217161429      !
 C         -7.2270986720        1.0436676530        0.8499529595
 C         -6.4046941339        0.0339304008        0.0285691049
 C         -7.3406888610       -0.9086320236       -0.7499647182
 C         -5.5619967328       -0.7899776269        0.9832209564
 C         -6.1895087767       -1.5464080288        1.9638919750
 C         -5.4780376060       -2.2879369661        2.8880066193
 C         -4.0958964989       -2.2637841958        2.8510456962
 C         -3.4469406252       -1.5228978022        1.8861507369
 C         -4.1642134847       -0.7972913778        0.9302907637
 N         -3.4847822607       -0.0717357779       -0.0386323202
 C         -2.0675157999       -0.0669404042       -0.0346733522
 C         -1.3805001699        1.0757282056        0.3675347139
 C         -0.0019339896        1.0885170850        0.3698116388
 C          0.7113335647       -0.0424795195       -0.0249885159
 C          2.1735509690       -0.0223572084       -0.0175362610
 N          2.7737832820        1.1324146611        0.2550618304
 C          4.1034803422        1.1125052817        0.2557217958
 C          4.8072226003        2.3620228035        0.5447064107
 C          4.0894110573        3.5424070509        0.7279268799
 C          4.7553291243        4.7215133052        0.9995125050
 C          6.1385387373        4.7334118018        1.0917760092
 C          6.8570611713        3.5618207331        0.9107516992
 C          6.1973605525        2.3794043748        0.6374597150
 N          4.8293993279        0.0257863316        0.0101757426
 C          4.1478443787       -1.0853108811       -0.2538533350
 C          4.9068774057       -2.3058937308       -0.5265657097
 C          4.2426857000       -3.5079602378       -0.7625369148
 C          4.9642992693       -4.6582432728       -1.0158871865
 C          6.3499274718       -4.6200099462       -1.0360679094
 C          7.0153846156       -3.4264415007       -0.8027339806
 C          6.2998993711       -2.2726657973       -0.5486038946
 N          2.8192957909       -1.1542457013       -0.2815297840
 C          0.0215131812       -1.1859667448       -0.4240941577
 C         -1.3581444087       -1.1975138378       -0.4317367353
 C         -4.1552306713        0.7001745532       -0.9774493249
 C         -3.4306279512        1.3679192089       -1.9696261608
 C         -4.0666055227        2.1543571970       -2.9065548605
 C         -5.4435840588        2.2819392433       -2.8787742007
 C         -6.1650849739        1.5944074638       -1.9211019415
 C         -5.5505420483        0.7936758740       -0.9677711447
 H         -7.8557194409        1.6494552939        0.2031333740
 H         -7.8663798509        0.5333313083        1.5651951549
 H         -6.5590783304        1.7052618901        1.3980462182
 H         -7.9791629419       -0.3490628085       -1.4279618713
 H         -7.9757487868       -1.4726046769       -0.0726961539
 H         -6.7521320136       -1.6124412469       -1.3354702058
 H         -7.2677883596       -1.5579068180        2.0153281123
 H         -5.9981890432       -2.8669975429        3.6357003885
 H         -3.5181372713       -2.8177734850        3.5758693444
 H         -2.3684581832       -1.4996170403        1.8763821279
 H         -1.9406341483        1.9471553043        0.6734117700
 H          0.5441155795        1.9644816235        0.6820484737
 H          3.0139587068        3.5140129909        0.6507058902
 H          4.1975633005        5.6358155931        1.1402077576
 H          6.6570075215        5.6568683375        1.3048581353
 H          7.9347648819        3.5737863803        0.9837129723
 H          6.7394385679        1.4579570853        0.4946316141
 H          3.1643526362       -3.5191966110       -0.7406110968
 H          4.4481989041       -5.5896226685       -1.1977487635
 H          6.9118291064       -5.5213027037       -1.2335239614
 H          8.0951358667       -3.3988424745       -0.8194413139
 H          6.8001322810       -1.3347856635       -0.3655974752
 H          0.5847994516       -2.0520894801       -0.7331542497
 H         -1.9002871327       -2.0782886275       -0.7433824370
 H         -2.3572572987        1.2632663464       -2.0089688360
 H         -3.4837212724        2.6631544493       -3.6597645828
 H         -5.9531205761        2.9001821609       -3.6020274950
 H         -7.2407789080        1.6866569163       -1.9223465896
  68
  -102.628976685400       0.325900730045647      !
 C         -7.3010200425        1.0154084906        0.6670323180
 C         -6.4069722614       -0.0393298705       -0.0101621359
 C         -7.2730095657       -1.1152544787       -0.6908297261
 C         -5.5519453593       -0.7025586023        1.0525799176
 C         -6.1666189436       -1.3608522308        2.1090898614
 C         -5.4424076079       -1.9618395860        3.1216547352
 C         -4.0612819036       -1.8948542308        3.0949975764
 C         -3.4247675102       -1.2489638299        2.0563756674
 C         -4.1542590415       -0.6633383945        1.0172302795
 N         -3.4858736768       -0.0278478384       -0.0191567259
 C         -2.0674945159       -0.0170759846       -0.0192842742
 C         -1.3791139817        1.1472956502        0.3100013081
 C          0.0001785649        1.1565587111        0.3138375095
 C          0.7104046262        0.0020438708       -0.0112551607
 C          2.1730982065        0.0113749419       -0.0034484876
 N          2.7869799681        1.1458498555        0.3200909532
 C          4.1165197354        1.1093026659        0.3188938274
 C          4.8383012451        2.3294517947        0.6799291927
 C          4.1382273949        3.5023818922        0.9565323563
 C          4.8232734132        4.6514426991        1.3003194637
 C          6.2079712792        4.6405843946        1.3725417724
 C          6.9089747658        3.4763838670        1.0981653327
 C          6.2301719278        2.3242055346        0.7524098517
 N          4.8294915649        0.0295800652        0.0106604754
 C          4.1348800237       -1.0598732297       -0.3028602614
 C          4.8761761253       -2.2716217180       -0.6526042308
 C          4.1943816621       -3.4552598761       -0.9283435742
 C          4.8975140147       -4.5970348574       -1.2596378503
 C          6.2822046523       -4.5681423712       -1.3201314417
 C          6.9651225835       -3.3929941648       -1.0470964972
 C          6.2681413046       -2.2480849574       -0.7135898276
 N          2.8055244541       -1.1146756967       -0.3182635273
 C          0.0179730106       -1.1616579829       -0.3422304761
 C         -1.3613884820       -1.1714022285       -0.3465498732
 C         -4.1656256093        0.6112394238       -1.0456376631
 C         -3.4472116941        1.2083972089       -2.0859464771
 C         -4.0950694480        1.8584238991       -3.1148916894
 C         -5.4767186015        1.9169781623       -3.1312647104
 C         -6.1899652969        1.3031481929       -2.1187275948
 C         -5.5637166961        0.6418185417       -1.0709860295
 H         -7.9391557066        1.5088560633       -0.0607807270
 H         -7.9361836616        0.5603185179        1.4218817924
 H         -6.6821340458        1.7701529494        1.1489178911
 H         -7.9147857978       -0.6751051685       -1.4490928992
 H         -7.9019771912       -1.6233494309        0.0349927769
 H         -6.6342359488       -1.8553442587       -1.1694929925
 H         -7.2444102321       -1.4083338135        2.1492576002
 H         -5.9530097417       -2.4664392400        3.9276336207
 H         -3.4753348845       -2.3414013834        3.8843930153
 H         -2.3472637466       -1.1909254010        2.0510777586
 H         -1.9376298285        2.0375666445        0.5595525211
 H          0.5482528836        2.0486759757        0.5718346175
 H          3.0614294271        3.4923353841        0.8947405776
 H          4.2791038272        5.5599645015        1.5136820384
 H          6.7410307518        5.5401816766        1.6436893448
 H          7.9871476469        3.4698355038        1.1574170739
 H          6.7583470326        1.4086936157        0.5368232739
 H          3.1170881138       -3.4591906503       -0.8755718475
 H          4.3676383036       -5.5140719443       -1.4719749457
 H          6.8295005067       -5.4623587345       -1.5807508225
 H          8.0440416396       -3.3725739674       -1.0961201829
 H          6.7820496790       -1.3241474734       -0.4999401847
 H          0.5798316260       -2.0462294016       -0.5966150292
 H         -1.9062073277       -2.0690836478       -0.5995685777
 H         -2.3693701353        1.1548499337       -2.0897771848
 H         -3.5173952876        2.3144347269       -3.9051248991
 H         -5.9958732986        2.4256718002       -3.9291442620
 H         -7.2683899733        1.3421342075       -2.1521100571
  68
  -102.627235304400       5.161810250334090E-002 !
 C         -6.0041326234        1.7198339152        1.1873639848
 C         -6.2533881126        0.4723597991        0.3108245713
 C         -7.7634520624        0.2937484359        0.1486525122
 C         -5.5960931056       -0.6999774838        1.0149252175
 C         -6.2908178196       -1.5646776356        1.8450203932
 C         -5.6379887061       -2.5097544293        2.6183648189
 C         -4.2578427271       -2.5751925434        2.5925893744
 C         -3.5439155156       -1.7474777083        1.7493520074
 C         -4.2020959116       -0.8361085356        0.9243182074
 N         -3.4981434233       -0.0441372482        0.0228174209
 C         -2.0813346406       -0.0529170799        0.0068175864
 C         -1.4019214976        1.1138698256        0.3445179183
 C         -0.0229416574        1.1401336670        0.3369903845
 C          0.6980502977       -0.0008752428       -0.0104570965
 C          2.1603220884        0.0239375849       -0.0061477841
 N          2.7616532804        1.1694815462        0.3006375364
 C          4.0914288382        1.1469286931        0.3034316128
 C          4.7982420146        2.3836242563        0.6370521491
 C          4.0817665722        3.5437954495        0.9247386334
 C          4.7513680161        4.7094623780        1.2416649673
 C          6.1371223231        4.7283629240        1.2745837955
 C          6.8544816877        3.5771126090        0.9885718419
 C          6.1909781726        2.4080858398        0.6705679944
 N          4.8162817086        0.0675326797        0.0243541250
 C          4.1337130295       -1.0336394314       -0.2754579451
 C          4.8896750660       -2.2464353274       -0.5887398517
 C          4.2215056857       -3.4255559353       -0.9128656563
 C          4.9390686184       -4.5691631075       -1.2044286183
 C          6.3249076743       -4.5473356362       -1.1751254523
 C          6.9943208370       -3.3767680225       -0.8538990469
 C          6.2827554131       -2.2294887597       -0.5616638624
 N          2.8053729680       -1.0999580772       -0.3039968783
 C          0.0156050531       -1.1640497556       -0.3632930084
 C         -1.3634767783       -1.1898473413       -0.3585147681
 C         -4.1629635713        0.5167735905       -1.0633674101
 C         -3.4588929742        0.8482903118       -2.2208186449
 C         -4.1195427662        1.3522781242       -3.3228050099
 C         -5.4928426417        1.5075599324       -3.2912543701
 C         -6.1931625366        1.1854266816       -2.1409869491
 C         -5.5500648628        0.7062886211       -1.0110393956
 H         -6.4210353137        2.6031903448        0.7077003853
 H         -6.4713399010        1.5920813050        2.1618003355
 H         -4.9384670143        1.8779207449        1.3357415292
 H         -8.2013069725        1.1751848191       -0.3117992266
 H         -8.2381268036        0.1776462504        1.1190411016
 H         -7.9879095187       -0.5763784692       -0.4641857347
 H         -7.3644882064       -1.5024419828        1.9136043203
 H         -6.2058260521       -3.1683448525        3.2578766078
 H         -3.7307509286       -3.2752957452        3.2236804636
 H         -2.4666927363       -1.8049268992        1.7389626119
 H         -1.9676876751        1.9948721077        0.6098014217
 H          0.5163508414        2.0351159255        0.6030490761
 H          3.0041597728        3.5101793828        0.8939490459
 H          4.1944007589        5.6076857028        1.4647171029
 H          6.6585653034        5.6410783482        1.5238166307
 H          7.9342933218        3.5942369600        1.0148979986
 H          6.7326074736        1.5030066041        0.4452172382
 H          3.1433363202       -3.4242220168       -0.9296573864
 H          4.4195965359       -5.4825246669       -1.4553819711
 H          6.8833842551       -5.4433956707       -1.4035838183
 H          8.0740195846       -3.3614732375       -0.8321571774
 H          6.7865688063       -1.3096666098       -0.3096833516
 H          0.5846778541       -2.0356215892       -0.6457334820
 H         -1.8968955423       -2.0837001239       -0.6477120868
 H         -2.3897076587        0.7034764583       -2.2577595845
 H         -3.5593912601        1.6101608916       -4.2093023058
 H         -6.0199995541        1.8874647168       -4.1532431150
 H         -7.2615136397        1.3273206112       -2.1364600499
  68
  -102.627007717200       4.057048507501940E-002 !
 C         -6.0881116039        1.8759029547        0.8254392418
 C         -6.2744374986        0.4706208932        0.2117664192
 C         -7.7735464104        0.1881539771        0.1010338908
 C         -5.5641128910       -0.5114463056        1.1238413926
 C         -6.2111173008       -1.2254163938        2.1193207574
 C         -5.5106608510       -2.0012675374        3.0279232368
 C         -4.1316704826       -2.0615484209        2.9564760650
 C         -3.4643022249       -1.3820483080        1.9573931148
 C         -4.1698618437       -0.6206150846        1.0264186091
 N         -3.5012491012        0.0208147731       -0.0095149579
 C         -2.0802329371        0.0057124196       -0.0199794167
 C         -1.3944860977        1.0863692622        0.5211405589
 C         -0.0141006699        1.0958176212        0.5281490488
 C          0.6957702727        0.0213877155       -0.0025144379
 C          2.1593742400        0.0320302049        0.0104683938
 N          2.7673014836        1.1410254706        0.4192522677
 C          4.0973668700        1.1126949265        0.4122550307
 C          4.8109068909        2.3154436481        0.8410628459
 C          4.1017648708        3.4678205838        1.1746401497
 C          4.7774513677        4.6037802801        1.5754043358
 C          6.1618554212        4.6000843857        1.6479368251
 C          6.8718267083        3.4560047523        1.3179996401
 C          6.2023679314        2.3168853874        0.9153283887
 N          4.8149683334        0.0576022551        0.0382551990
 C          4.1254387728       -1.0107187781       -0.3510241902
 C          4.8730901429       -2.1975150227       -0.7660345881
 C          4.1972829095       -3.3648260960       -1.1163937359
 C          4.9068280766       -4.4839024350       -1.5062272834
 C          6.2919518996       -4.4486423300       -1.5504672871
 C          6.9689223777       -3.2898251233       -1.2029809277
 C          6.2655650572       -2.1674213438       -0.8115991604
 N          2.7962290624       -1.0651500647       -0.3859092459
 C          0.0052622919       -1.0623385501       -0.5430622629
 C         -1.3741679124       -1.0697780564       -0.5535693669
 C         -4.1872868687        0.3465670236       -1.1733439925
 C         -3.5000289748        0.5368311551       -2.3715262910
 C         -4.1866160552        0.8112767437       -3.5371933382
 C         -5.5666604667        0.8856008828       -3.5227142242
 C         -6.2488664490        0.7290123660       -2.3276660847
 C         -5.5827487483        0.4807144146       -1.1385635501
 H         -6.5550359328        2.6265740995        0.1910074464
 H         -6.5412840006        1.9157692063        1.8139052874
 H         -5.0314421121        2.1146066065        0.9207710150
 H         -8.2565700091        0.9385921087       -0.5185963618
 H         -8.2423613621        0.2398621982        1.0798030240
 H         -7.9520072334       -0.7957173127       -0.3273327049
 H         -7.2837272050       -1.1757556256        2.2113640217
 H         -6.0424629387       -2.5402505591        3.7973489381
 H         -3.5707098954       -2.6438298238        3.6725784741
 H         -2.3881477542       -1.4421522398        1.8961976737
 H         -1.9530849161        1.9130922216        0.9343037240
 H          0.5334202477        1.9261924973        0.9446076757
 H          3.0251773650        3.4526968090        1.1098654956
 H          4.2263921105        5.4964907837        1.8326132013
 H          6.6879757390        5.4899321435        1.9615885666
 H          7.9504710053        3.4557059580        1.3756061198
 H          6.7377951175        1.4172388696        0.6558005891
 H          3.1195833548       -3.3743683699       -1.0741116227
 H          4.3816795317       -5.3882501439       -1.7767869191
 H          6.8444589498       -5.3252132744       -1.8559922559
 H          8.0482490393       -3.2647170292       -1.2385370075
 H          6.7749267755       -1.2570124765       -0.5378322174
 H          0.5680625028       -1.8870482750       -0.9509536746
 H         -1.9187406558       -1.9043405109       -0.9709733928
 H         -2.4228300736        0.4700110067       -2.3889107974
 H         -3.6397887650        0.9581464467       -4.4566726673
 H         -6.1134369605        1.0847329490       -4.4319437805
 H         -7.3227715103        0.8196170240       -2.3379523610
  68
  -102.625588469400       9.035851217048944E-003 !
 C         -5.9778375691        2.0769738094        0.2407695400
 C         -6.2166364426        0.5511375100        0.2010893636
 C         -7.7114203506        0.2955335394        0.3939401889
 C         -5.3733651918       -0.0651598017        1.2981253163
 C         -5.8736743589       -0.4168100521        2.5414760489
 C         -5.0434255109       -0.8671403775        3.5539135160
 C         -3.6839191874       -0.9737443745        3.3275248057
 C         -3.1653547368       -0.6583791874        2.0879353950
 C         -3.9994763719       -0.2062588210        1.0656370446
 N         -3.4811592729        0.0568846971       -0.2013426857
 C         -2.0716862709        0.0930778733       -0.3269077450
 C         -1.3960035690        1.2185587715        0.1383778678
 C         -0.0177752766        1.2547105053        0.1296498574
 C          0.7067141107        0.1641064592       -0.3479634286
 C          2.1652938536        0.1501764503       -0.2549184103
 N          2.7615277005        1.1688161081        0.3575743114
 C          4.0760982976        1.0576427810        0.5255722515
 C          4.7687584006        2.1395650557        1.2258943229
 C          4.0948067807        3.3212314468        1.5278303245
 C          4.7469654106        4.3371153353        2.1989459517
 C          6.0708488879        4.1811469378        2.5793209883
 C          6.7451374647        3.0068527101        2.2826090262
 C          6.1008585794        1.9896373443        1.6055578698
 N          4.7929835925        0.0142006985        0.1168786185
 C          4.1238615163       -0.9304926178       -0.5374299589
 C          4.8670512521       -2.0866406979       -1.0386302371
 C          4.2491946982       -2.9921178510       -1.8989433233
 C          4.9456522723       -4.0911944517       -2.3620467141
 C          6.2579063835       -4.2994642262       -1.9664431664
 C          6.8765359499       -3.4016321082       -1.1103423797
 C          6.1880490985       -2.2961999245       -0.6493618853
 N          2.8108384418       -0.9028150045       -0.7467014894
 C          0.0285836568       -0.9489574181       -0.8428146783
 C         -1.3500021555       -0.9877647093       -0.8290519285
 C         -4.3120466540       -0.0525745522       -1.3116107410
 C         -3.7915381198       -0.2510090584       -2.5893582628
 C         -4.6333306867       -0.4345998833       -3.6685698894
 C         -6.0031611172       -0.4296817262       -3.4853704072
 C         -6.5233681772       -0.1648729582       -2.2294610946
 C         -5.7008536354        0.0583755734       -1.1377979061
 H         -6.5452851442        2.5647245450       -0.5491813951
 H         -6.2910220964        2.4793836167        1.2020815668
 H         -4.9244302787        2.3051989791        0.0975947951
 H         -8.2838032058        0.7884568716       -0.3871770620
 H         -8.0453951834        0.7115276835        1.3407441846
 H         -7.9292773753       -0.7700364015        0.3772022909
 H         -6.9290126294       -0.3335771639        2.7434874539
 H         -5.4588476055       -1.1247519933        4.5163494167
 H         -3.0229963245       -1.3153391137        4.1101688513
 H         -2.1068780549       -0.7709865599        1.9094728361
 H         -1.9653684258        2.0489075042        0.5295336676
 H          0.5178633884        2.1117019798        0.5057077523
 H          3.0648194531        3.4246026293        1.2246723219
 H          4.2239046850        5.2535963294        2.4299573570
 H          6.5763743242        4.9740246213        3.1111503448
 H          7.7751577445        2.8857599453        2.5846736713
 H          6.6093982430        1.0691111038        1.3658925076
 H          3.2277477444       -2.8129444893       -2.1959338067
 H          4.4667873982       -4.7898771612       -3.0324392944
 H          6.7985821323       -5.1632494810       -2.3250061595
 H          7.8985537260       -3.5675141735       -0.8024272925
 H          6.6531695891       -1.5866545929        0.0167979422
 H          0.6023516312       -1.7875578524       -1.2046471963
 H         -1.8765375056       -1.8656198797       -1.1739846469
 H         -2.7236854762       -0.2535116352       -2.7429274876
 H         -4.2135708979       -0.5898062941       -4.6513766543
 H         -6.6679562455       -0.5991863005       -4.3187552656
 H         -7.5943736167       -0.1196934433       -2.1179262712
  68
  -102.625580356900       8.958613997514792E-003 !
 C         -4.4552119091        0.7390436901        2.2180398090
 C         -5.5449256277        0.3922691260        1.1833109876
 C         -6.9082073729        0.6281749877        1.8327653963
 C         -5.3575417133       -1.0444810448        0.7273026367
 C         -6.1801956467       -2.0965464206        1.0974655448
 C         -5.9535725518       -3.3777439788        0.6228698326
 C         -4.9184432151       -3.6183434133       -0.2624822530
 C         -4.0933708931       -2.5806825703       -0.6543782987
 C         -4.2867669241       -1.3066178135       -0.1347506468
 N         -3.4873183074       -0.2196923453       -0.5438291954
 C         -2.1131107446       -0.1829098347       -0.4194494005
 C         -1.4097487155        1.0161564771       -0.6138217343
 C         -0.0425823621        1.0638300143       -0.4856090188
 C          0.6864418773       -0.0795833758       -0.1574127329
 C          2.1345399223       -0.0299391553       -0.0523529789
 N          2.7224521651        1.1664795335       -0.0682407752
 C          4.0449732338        1.1673301159        0.0448785260
 C          4.7291767961        2.4617954153        0.0782989800
 C          6.1203649398        2.5197122646        0.1179702158
 C          6.7608951808        3.7430367858        0.1566763925
 C          6.0214582035        4.9155546307        0.1572042531
 C          4.6367730539        4.8630786316        0.1180078338
 C          3.9904025153        3.6429966045        0.0782468509
 N          4.7881082847        0.0667099256        0.1306541587
 C          4.1214398788       -1.0850300211        0.1200873210
 C          4.8981546018       -2.3250800917        0.1840438164
 C          4.2581669604       -3.5582652611        0.0813352647
 C          4.9946394947       -4.7258536730        0.1310876415
 C          6.3714143996       -4.6739306539        0.2840860574
 C          7.0126350306       -3.4493445368        0.3875225800
 C          6.2818731948       -2.2781402396        0.3375819223
 N          2.7988963718       -1.1810346645        0.0510470658
 C         -0.0116584170       -1.2606160776        0.0939231191
 C         -1.3814845035       -1.3097374087       -0.0162869759
 C         -4.2585686316        0.9111242314       -0.8806722419
 C         -4.0205651071        1.6114174229       -2.0571522682
 C         -4.8252055826        2.6825176434       -2.3957042340
 C         -5.8801900685        3.0370081487       -1.5734537060
 C         -6.1402241192        2.3141808788       -0.4211431881
 C         -5.3375377265        1.2445508423       -0.0564974931
 H         -4.5525680526        1.7797527478        2.5203355520
 H         -4.5673200664        0.1077499590        3.0971069126
 H         -3.4555506265        0.5925786118        1.8186790733
 H         -6.9979475987        1.6649174354        2.1475367179
 H         -7.0119616200        0.0112740314        2.7218677814
 H         -7.7161376324        0.3955084464        1.1425307797
 H         -7.0099621746       -1.9303039361        1.7650806302
 H         -6.5996117866       -4.1849163213        0.9336025599
 H         -4.7603847431       -4.6093618175       -0.6605430242
 H         -3.3132902033       -2.7493679909       -1.3811779271
 H         -1.9474272430        1.9230567397       -0.8417084674
 H          0.4870566878        1.9906939594       -0.6399038005
 H          6.6788040071        1.5968422009        0.1167154724
 H          7.8400154003        3.7862590890        0.1875558378
 H          6.5247640253        5.8711304081        0.1888226028
 H          4.0623182799        5.7780928481        0.1193838088
 H          2.9138072849        3.5813435321        0.0510096353
 H          3.1864738407       -3.5777087873       -0.0405071131
 H          4.4971860983       -5.6815106298        0.0496544822
 H          6.9453552993       -5.5885780250        0.3211415912
 H          8.0858637284       -3.4109403892        0.5057913167
 H          6.7634414606       -1.3159727642        0.4149571901
 H          0.5414708372       -2.1371340224        0.3930435471
 H         -1.8936294401       -2.2241112551        0.2360942474
 H         -3.2146503584        1.3033168503       -2.7063776258
 H         -4.6355964267        3.2299468608       -3.3067070016
 H         -6.5124794890        3.8723550451       -1.8344155663
 H         -6.9797520914        2.5996220940        0.1917579435
