  91
       -136.93254110
 C          0.3791936502        5.4951518792        1.1537139067
 C         -0.2371737836        4.7741601494       -0.0496684347
 C          0.2510279226        5.4059213714       -1.3579979466
 C         -1.7425828672        4.7910552330        0.0302948323
 C         -2.5833727690        5.8820014965        0.0685618007
 C         -3.9511866811        5.6731609190        0.1770564585
 C         -4.4604428960        4.3870779049        0.2596789379
 C         -3.6208332748        3.2869342380        0.2168310241
 C         -2.2544991128        3.4856863189        0.0863608166
 C         -1.1466041534        2.5471442666        0.0272481621
 C          0.0639232514        3.2895295024       -0.0192601812
 C          1.3453552236        2.7546073558       -0.0314638623
 C          1.4584629925        1.3669575972        0.0110963023
 C          2.4380806005        0.2984716062        0.0341419702
 C          3.8207135637        0.2967881893        0.0299329601
 C          4.4985405004       -0.9203000326        0.0474152672
 N          5.9009064907       -0.9432763617        0.0266162091
 C          6.5997479485       -0.0254209517       -0.7628247005
 C          6.0919693645        0.3777133862       -1.9983309808
 C          6.7824934796        1.2900433344       -2.7715842933
 C          7.9904896566        1.8093714286       -2.3356675710
 C          8.5011372798        1.4107193403       -1.1112095319
 C          7.8135115955        0.5062749290       -0.3260464663
 C          6.5918293663       -1.8833788537        0.7969350606
 C          7.7640157034       -2.4695134336        0.3187248595
 C          8.4413990563       -3.3976007487        1.0848471306
 C          7.9613014370       -3.7648163807        2.3313534291
 C          6.7946128045       -3.1905558277        2.8087683817
 C          6.1146757118       -2.2549528053        2.0541409731
 C          3.7842451292       -2.1235890674        0.0810306550
 C          2.4025520102       -2.1455905244        0.1028604139
 C          1.7244445971       -0.9410964178        0.0742400051
 N          0.3684981843       -0.6619533481        0.0727123927
 C         -0.9151457380       -1.1772715876        0.0751655361
 C         -1.3546864587       -2.4875527289        0.1089282204
 C         -2.7146190899       -2.7316099329        0.0918297781
 C         -3.6367639794       -1.6839346070        0.0010337612
 N         -5.0105429126       -1.9541647665       -0.0390794093
 C         -5.4878354199       -3.0884744031       -0.7042432449
 C         -6.5739381051       -3.7987315836       -0.1925265197
 C         -7.0457594475       -4.9182306167       -0.8492072274
 C         -6.4421140503       -5.3533698684       -2.0177569253
 C         -5.3616741873       -4.6533346369       -2.5290178254
 C         -4.8875390095       -3.5277455204       -1.8841267929
 C         -5.9129464490       -1.0635929202        0.5542630997
 C         -5.5947587883       -0.4218474601        1.7517612812
 C         -6.4779625846        0.4764457194        2.3175781359
 C         -7.6953762576        0.7410055979        1.7114776729
 C         -8.0223718992        0.0974384802        0.5292862911
 C         -7.1405023650       -0.7936260156       -0.0507114359
 C         -3.1936206807       -0.3635597783       -0.0439927955
 C         -1.8414225251       -0.0858186837        0.0281384042
 C         -1.0708633776        1.1493028033        0.0257683046
 C          0.2439293803        0.6921112881        0.0356134423
 H          0.0945411451        6.5446915136        1.1515899355
 H          1.4639917912        5.4302656467        1.1214137245
 H          0.0314985124        5.0427814362        2.0801026342
 H         -0.0314540839        6.4552366076       -1.3981228290
 H         -0.1918613519        4.8938957085       -2.2096350007
 H          1.3332946530        5.3338333272       -1.4340834974
 H         -2.1898912778        6.8870729160        0.0198198060
 H         -4.6221575030        6.5191950819        0.2080092048
 H         -5.5256512513        4.2378280305        0.3616144707
 H         -4.0352381486        2.2963906860        0.3020096601
 H          2.2116526694        3.3975326540       -0.0666520163
 H          4.3712457345        1.2253228088        0.0104445911
 H          5.1552103624       -0.0320468301       -2.3467608844
 H          6.3776942643        1.5910698375       -3.7268232996
 H          8.5294664478        2.5188826728       -2.9450564463
 H          9.4390072948        1.8147811536       -0.7589943172
 H          8.2095885833        0.2071999961        0.6334259962
 H          8.1351960026       -2.1938947697       -0.6575635132
 H          9.3469149926       -3.8444035248        0.7011116689
 H          8.4919621621       -4.4930491116        2.9256341919
 H          6.4146862674       -3.4668112640        3.7815013189
 H          5.2101771341       -1.8020187078        2.4330985846
 H          4.3322736694       -3.0538998138        0.0881070008
 H          1.8720773681       -3.0847017348        0.1289587833
 H         -0.6539415590       -3.3063706855        0.1585472143
 H         -3.0763500064       -3.7475509882        0.1413400680
 H         -7.0402889212       -3.4663979798        0.7234668605
 H         -7.8860395280       -5.4600446337       -0.4404434583
 H         -6.8114845449       -6.2308159681       -2.5264573037
 H         -4.8894880008       -4.9805247940       -3.4438184295
 H         -4.0521852877       -2.9771564753       -2.2916482022
 H         -4.6501295968       -0.6313166712        2.2321232297
 H         -6.2152893686        0.9690613764        3.2423161650
 H         -8.3835586652        1.4430326989        2.1572773577
 H         -8.9675782221        0.2992821071        0.0470752115
 H         -7.3930448819       -1.2826342324       -0.9802357721
 H         -3.9176937361        0.4274880130       -0.1460253060
