47
 energy: -71.441674742278 gnorm: 0.000035036995 xtb: 6.7.1 (edcfbbe)
C           -1.77602290592609       -2.05905924566597        1.29772139149570
C           -1.12421834224287       -1.51689009306601       -0.00001123778972
C           -1.77528577481500       -2.05867122541985       -1.29828878421995
C            0.30263594068026       -2.03984119280439        0.00014184449498
C            0.51382019036264       -3.41206192019633        0.00031518594851
C            1.78671034127764       -3.95329537428162        0.00035973720013
C            2.88285175395832       -3.10853140207652        0.00026805029669
C            2.69811281999679       -1.74112463923178        0.00013722707362
C            1.41195999759214       -1.19441071379083        0.00008134975486
N            1.23624740503009        0.17972105219467       -0.00005655772826
C            2.39668451602933        1.00961400208699       -0.00009443406195
C            2.96476066673888        1.40773234682932       -1.20402910283423
C            4.09558954330683        2.20591372731870       -1.20031352697148
C            4.66137614272917        2.60497729709634       -0.00022165396295
C            4.09568769588397        2.20597139466895        1.19993745058079
C            2.96485898308049        1.40778789412016        1.20378089743641
C           -0.01881346259194        0.75868604570324        0.00004730247441
C           -0.08127568197255        2.17355955314847        0.00011835224421
C           -1.27247153739201        2.82533482839605        0.00016710461139
C           -2.48130357530388        2.10313627977848        0.00013272855966
C           -3.70993251393844        2.79283185764685        0.00012942960301
C           -4.87540266719175        2.08845306648879        0.00008171398117
F           -6.06949046830839        2.74852019730680        0.00003052629524
C           -4.88313556060735        0.69139544714593        0.00011651299426
C           -3.69618943495528        0.01281735893810        0.00014994623280
C           -2.44188550142891        0.67838300325708        0.00012450570286
C           -1.18499916602931        0.00460189833592        0.00007457235545
H           -2.21085533103312       -3.04255197865229        1.13908139606852
H           -2.54423300338362       -1.39646012558342        1.68157606922144
H           -1.01298254054551       -2.15050189925613        2.06986294278181
H           -2.20748183903856       -3.04351219805016       -1.14092764288400
H           -2.54537854066268       -1.39753215075294       -1.68082599910052
H           -1.01236290098581       -2.14704615836857       -2.07089436124962
H           -0.33613969261527       -4.07638220406100        0.00045028130625
H            1.92038483573997       -5.02474474696536        0.00046602764832
H            3.88515855952729       -3.51159558156669        0.00028562893216
H            3.55702068547159       -1.08772788559367        0.00008820281382
H            2.51539306566016        1.09036061398835       -2.13370424365925
H            4.53544494524563        2.51592666316007       -2.13663510589710
H            5.54395854222191        3.22713691003323       -0.00027141022459
H            4.53561781447897        2.51602920636730        2.13621164050992
H            2.51556856593122        1.09046218057960        2.13351172077835
H            0.83803225804843        2.73760163048305        0.00014516934296
H           -1.30587390209429        3.90471150141086        0.00019837737039
H           -3.72009873395508        3.87215745444160        0.00013998314563
H           -5.82758444791725        0.16923895043633        0.00011913435654
H           -3.74445874405693       -1.06112162597263        0.00022165697491
