47
 energy: -71.442190321113 gnorm: 0.000082759763 xtb: 6.7.1 (edcfbbe)
C           -1.16248194025079       -2.71878477330591        1.10800061326909
C           -0.51788429710301       -1.93398623866569       -0.06544261040360
C           -0.93528065828324       -2.47774592246252       -1.45174771485683
C            0.98467284021162       -2.15064933252117        0.01402438410724
C            1.47625160442560       -3.44929522947472        0.03610793676957
C            2.83265406114274       -3.71613360228832        0.07667865950028
C            3.73017892330160       -2.66293174743554        0.09714679635768
C            3.26654768951163       -1.36368732998505        0.07799344453484
C            1.89562435539411       -1.09488880416300        0.03384362329956
N            1.44028115704912        0.21284545945332        0.01322305452474
C            2.40504042674294        1.26374878924765       -0.00852447454313
C            2.85181778257264        1.76471175215132       -1.22491558220854
C            3.79587824725555        2.77686561954038       -1.24725196107499
C            4.29617318158104        3.28754875505911       -0.06067813138876
C            3.85266701286103        2.78548200979228        1.15218770720083
C            2.90873538393913        1.77370942481364        1.18211013716998
C            0.09243395309696        0.51932242217156        0.03155197740679
C           -0.25837232496454        1.89046239580960        0.07920185972860
C           -1.55739059211504        2.28497250323024        0.09402894292695
C           -2.59214047698591        1.33087049184124        0.06083292400673
C           -3.93563765172116        1.75525805055214        0.06798988797197
C           -4.93292588729014        0.82877288388768        0.02942371794043
F           -6.23656428039495        1.23120008172709        0.03446495071322
C           -4.65450756291801       -0.53935419251308       -0.01528522833221
C           -3.35381190857935       -0.96041615205097       -0.01972973656448
C           -2.26164627105621       -0.05529539974806        0.01690958880886
C           -0.89385880308047       -0.45862650436763        0.00688417321394
H           -1.80757294342015       -2.07952307058509        1.70398745991890
H           -0.38812762607491       -3.09903346193841        1.77150054811924
H           -1.74207165647430       -3.56734325976320        0.75229748477874
H           -0.30395759724662       -2.02556897072803       -2.21597279521884
H           -0.79839373370453       -3.55513407162884       -1.49657309707366
H           -1.96627829138992       -2.24422766261516       -1.69480484311506
H            0.78272000447794       -4.27653280628057        0.02305889160123
H            3.18406075707434       -4.73703836105455        0.09045372438720
H            4.79365127382856       -2.85012101891351        0.12852116364943
H            3.97115550774202       -0.54661565670262        0.09604390197403
H            2.45552492779694        1.35868450275298       -2.14412456211720
H            4.14167200716039        3.16583451535800       -2.19349389407853
H            5.03270680245737        4.07693207289980       -0.08090052605851
H            4.24271090301298        3.18158547894849        2.07807516693837
H            2.55595743536241        1.37437488009160        2.12182241112151
H            0.52632792434509        2.62985842023067        0.10365871943424
H           -1.81096405924637        3.33407515249828        0.12927374268854
H           -4.16552707787703        2.80933625753550        0.10232398733253
H           -5.47192426593275       -1.24334802534235       -0.04433769190077
H           -3.18152745561675       -2.02006550188649       -0.04883733935479
