47
 energy: -71.354252657851 gnorm: 0.000044901825 xtb: 6.7.1 (edcfbbe)
C           -1.17057779295867       -2.72550483920194        1.11258556878365
C           -0.51574891170405       -1.92001131791028       -0.04318219382273
C           -0.91095182791497       -2.45939723250501       -1.44467189937640
C            0.97548629481662       -2.14867461541826        0.03888358026525
C            1.46748763973952       -3.44632533133208        0.07465064340963
C            2.82447539213223       -3.71071369255033        0.10058501501971
C            3.72992848662175       -2.65433184176450        0.08307441442308
C            3.27384497644378       -1.35899987449341        0.05180442454563
C            1.89361889392532       -1.08539079637330        0.03616409657974
N            1.44336931285311        0.21056307009014        0.02568487174207
C            2.41517515273808        1.25722926889207       -0.00939664987059
C            2.82095592875994        1.77618786639641       -1.23174850527824
C            3.76648714532365        2.78679521523994       -1.26579979106517
C            4.30533768489826        3.27615266306497       -0.08696810759523
C            3.89930574356545        2.75472687259609        1.13072598540575
C            2.95455875856212        1.74392902590633        1.17460397773850
C            0.11544876482580        0.55812545623307        0.05911870413123
C           -0.23160687277264        1.89884722027991        0.12387327073070
C           -1.55762261849124        2.28597931210237        0.14349154210029
C           -2.59795576579991        1.32982852542912        0.07889728311857
C           -3.92794020028068        1.74865517185429        0.08029917972105
C           -4.95695006356309        0.79845066084898        0.00883743922006
F           -6.25030497924459        1.24326734912102        0.01312215964830
C           -4.69708720079452       -0.53912562598602       -0.06387632501926
C           -3.35991712416547       -0.97039619490547       -0.06394697367091
C           -2.27326175547494       -0.06626169735850        0.01071774206241
C           -0.91376137995284       -0.46667585047043        0.02535516769923
H           -1.94443704090746       -2.14598224577446        1.60570851531222
H           -0.42098737062698       -2.97107908808509        1.86223058765673
H           -1.60675021338962       -3.65255107968661        0.75029244859434
H           -0.27589794415641       -1.99538594693842       -2.19804383095646
H           -0.76814272674568       -3.53528818079485       -1.49384999733227
H           -1.94150901166535       -2.22409491700317       -1.68752971726983
H            0.77430796142351       -4.27286702076648        0.08590740709366
H            3.17709355522388       -4.73016356852537        0.13001523696749
H            4.79183514906307       -2.84878025946914        0.09570714768142
H            3.97843147047524       -0.54264817616158        0.04065634880244
H            2.39253802112723        1.38845460800725       -2.14398677223302
H            4.08159076806046        3.19122984273383       -2.21583004677702
H            5.04130849604468        4.06536355787882       -0.11727313085339
H            4.31740631572159        3.13490040735725        2.05060121348935
H            2.62835034161759        1.33123350480721        2.11765838451209
H            0.53482747417738        2.65622111694643        0.16131188210085
H           -1.81412957404535        3.33256945507461        0.19904502918896
H           -4.17425323542229        2.79728986960145        0.13534058685597
H           -5.50234955008518       -1.25471983923399       -0.11938133362090
H           -3.20448556168597       -2.03059310766235       -0.12048933753701
