47
 energy: -71.354250112164 gnorm: 0.000047419535 xtb: 6.7.1 (edcfbbe)
C           -1.17151672627027       -2.71799633330181        1.11834796138477
C           -0.52118227780431       -1.91796077741148       -0.04376597083288
C           -0.92530319010465       -2.46061938815690       -1.44138019255486
C            0.96975954790786       -2.15056555650677        0.03218288029889
C            1.45839851739060       -3.44953976647299        0.06604228947589
C            2.81471370122587       -3.71758741580906        0.08932881987488
C            3.72292565278346       -2.66355718878233        0.07255114136300
C            3.27019728233625       -1.36700578042991        0.04398450378365
C            1.89066085734993       -1.08970030270570        0.02914722392564
N            1.44396980734657        0.20751308325022        0.02005381492635
C            2.41979282456586        1.25076918122315       -0.00778879009295
C            2.84540306892918        1.76098065259915       -1.22710468930192
C            3.79689451954619        2.76625134835997       -1.25326036230042
C            4.32180021740127        3.25909260996311       -0.06964018360325
C            3.89548086436284        2.74688542313091        1.14502528874988
C            2.94474614405793        1.74140308362034        1.18102136125011
C            0.11697946150706        0.55885676645819        0.05000919891094
C           -0.22643654241347        1.90089809236492        0.10601435793311
C           -1.55139426492102        2.29172477661330        0.12510327216898
C           -2.59439911607860        1.33786384850269        0.07088010792588
C           -3.92330159290630        1.76018541466921        0.07449160367152
C           -4.95509134075759        0.81229842987954        0.01283001753858
F           -6.24725680353115        1.26055695978651        0.01939071710909
C           -4.69893406071248       -0.52632103336666       -0.05307759531236
C           -3.36286139199328       -0.96111624916291       -0.05549316768907
C           -2.27355212930418       -0.05945875495029        0.01018429222978
C           -0.91502144698380       -0.46334791436997        0.02200321963383
H           -1.94496288992495       -2.13718483036503        1.61056133811285
H           -0.41926771833329       -2.95807550505866        1.86715307652757
H           -1.60693293514006       -3.64783995647559        0.76237052966615
H           -1.95618484397385       -2.22245694228909       -1.67999887004685
H           -0.29231416155169       -2.00126643496211       -2.19933312315409
H           -0.78663403311835       -3.53715770920023       -1.48786578479196
H            0.76310113759710       -4.27427872626962        0.07826380105230
H            3.16466115274322       -4.73800827351773        0.11682895874329
H            4.78434138230802       -2.86075982353057        0.08387031138337
H            3.97696924455489       -0.55254413950690        0.03407385989109
H            2.42803449751321        1.37039547345062       -2.14323458520081
H            4.12768057408117        3.16360585887207       -2.20095202936629
H            5.06302817425398        4.04357665796253       -0.09377922943565
H            4.30271267961412        3.12978734134033        2.06863387493616
H            2.60317290347830        1.33559540146367        2.12160861059374
H            0.54211528454990        2.65643017347049        0.13664527221780
H           -1.80501501814403        3.33940832196949        0.17276835361919
H           -4.16663487942929        2.80980975564043        0.12336993080482
H           -5.50618243779369       -1.24019072284576       -0.10126825520430
H           -3.21057457372918       -2.02205149052689       -0.10665354817104
