85
 energy: -134.532519692269 gnorm: 0.000045043685 xtb: 6.7.1 (edcfbbe)
O            7.42970140638072       -1.49195971561090       -1.99344750121824
P            7.02469682821382       -0.64917542116544       -0.86273481581221
C            7.68517339015716       -1.21987038963815        0.73778519867125
C            7.92269363218766       -0.37542338220084        1.81367921015901
C            8.41007527298643       -0.89722635572088        2.99879833364659
C            8.66030140844380       -2.25562849111504        3.11121073301991
C            8.43031906064868       -3.09747454855077        2.03501969036717
C            7.94346466684659       -2.57895855925681        0.84897155863761
C            7.57763984475910        1.08198728816649       -1.01673217865397
C            8.75221844474554        1.28854234367714       -1.72694372556355
C            9.25654607192067        2.56747397932473       -1.87709971336522
C            8.58469798343401        3.64256151274147       -1.31794286885327
C            7.40757207624770        3.43868814748820       -0.61587996164286
C            6.90107718879435        2.16013592849690       -0.46294574700363
C            5.22033224841272       -0.56685200477197       -0.63272513952034
C            4.43846966756896       -0.82793473992879       -1.74956864405188
C            3.06118254595402       -0.76457321245791       -1.66469511279564
C            2.44915701069855       -0.43183328848203       -0.45955832312516
C            0.97546508386888       -0.34885847985934       -0.36419054055889
C            0.21154762448336       -1.52288470345585       -0.33962077566337
C            0.81531178305038       -2.80716789917208       -0.38491400469424
C            0.06160743298769       -3.93988125452377       -0.37442599139419
C           -1.34448047787644       -3.85830126547915       -0.32116017583286
C           -1.96122917449855       -2.64684524171821       -0.26228847457529
C           -1.21299150454656       -1.44020920343294       -0.25430574550249
C           -1.83464117776967       -0.18605694548049       -0.18178773710899
C           -3.30799584716293       -0.10002354566811       -0.09227855452327
C           -3.97004019552651       -0.45579317511895        1.07902672390044
C           -5.34613599070788       -0.38017122094658        1.16393071148063
C           -6.08499624963773        0.05474664516651        0.06897966973438
N           -7.48477026183519        0.13158271000645        0.15390479575668
C           -8.39104557008830       -0.23808703708403       -0.81748757558824
C           -8.21940013355963       -0.86795091782225       -2.04122553582886
C           -9.36818277592275       -1.12646933266191       -2.76975021115265
C          -10.61587061245635       -0.76655319924447       -2.26006761379468
N          -10.79981405814557       -0.19900458071728       -1.08408488985512
C           -9.71052338871756        0.05446462646075       -0.37443729448635
C           -9.58011516037880        0.62367810801216        0.93405015419740
C          -10.45042811721802        1.11888044156110        1.89330740107106
C           -9.89010147630827        1.59571989141894        3.06681074988500
C           -8.50760333040853        1.56407150044511        3.23463857841000
N           -7.65357437377936        1.09804910524268        2.33849334928046
C           -8.19021742056231        0.63955154795897        1.21974309622867
C           -5.43135593667427        0.42942895269202       -1.10057691619877
C           -4.05451718937972        0.34776607028558       -1.17750413715535
C           -1.06895789580456        0.98786052486825       -0.19695125529011
C           -1.66628901400873        2.27207187459305       -0.09683820121255
C           -0.91217917533870        3.40423906221398       -0.12796879429187
C            0.48836874273738        3.32358227734957       -0.26398694539734
C            1.10167747347012        2.11175002707680       -0.34401459439533
C            0.35442209503301        0.90529504956980       -0.29829692931312
C            3.23894246314579       -0.17984436731794        0.65933769477016
C            4.61631290632825       -0.25098864768414        0.57738056593762
H            7.74004593720479        0.68607509755041        1.71911727718809
H            8.59858163008871       -0.24227161415903        3.83727075281246
H            9.04150146805614       -2.65698383787965        4.03879426927314
H            8.63234440803871       -4.15502206019090        2.12172395294738
H            7.76698431191403       -3.21096873370295       -0.00974983765395
H            9.25004156528204        0.43428595136632       -2.16323387496474
H           10.17075334433556        2.72805941612405       -2.42945065389794
H            8.97542808240985        4.64295578983003       -1.43352594287367
H            6.88160964822246        4.27983713791321       -0.18753135264871
H            5.97741599840760        2.00127428609485        0.07578803564450
H            4.93033790834274       -1.08898660878894       -2.67567118443286
H            2.44886995511017       -0.96719252031573       -2.53169226526436
H            1.89278454823987       -2.86893939431709       -0.42748454535300
H            0.53430949986895       -4.91029196681276       -0.40991441087807
H           -1.92722761411878       -4.76773237013721       -0.32592379975241
H           -3.03868002047242       -2.58475556212912       -0.22158225489824
H           -3.39550530097268       -0.79286862496271        1.92931614116455
H           -5.85650228166808       -0.64556442547714        2.07541129239354
H           -7.24529228966773       -1.15946822509989       -2.40551778912667
H           -9.30283581495321       -1.61360173318043       -3.73025195388236
H          -11.51624674003328       -0.95978884500531       -2.82728616782483
H          -11.51556400403159        1.12761657208874        1.72057895321110
H          -10.51306716037020        1.99268940885005        3.85277298155368
H           -8.05391363318914        1.93394271833791        4.14443874096987
H           -5.99880635068160        0.80492320011507       -1.93889178427099
H           -3.54748523356775        0.63773757757356       -2.08643679970562
H           -2.73908350797561        2.33446679121672        0.00956378134650
H           -1.38082833165221        4.37423810367525       -0.05050350968947
H            1.06941873531337        4.23340251425747       -0.30098817044110
H            2.17500267578157        2.04878640787262       -0.44799410105440
H            2.76192420822196        0.06690925560065        1.59739653768749
H            5.22217051332665       -0.07289019481447        1.45482809265510
