85
 energy: -134.532720084393 gnorm: 0.000094771528 xtb: 6.7.1 (edcfbbe)
O            7.62228675380466       -1.00256209392536       -1.98036051904265
P            7.17625420725675       -0.38304789309104       -0.72728509923780
C            7.81191694676203       -1.22210114235546        0.76099684444099
C            7.98603597219472       -0.58583902021555        1.98264311152682
C            8.46245467208838       -1.30236280616164        3.06605063619620
C            8.76532143546105       -2.64813619568877        2.93256083559327
C            8.59892433183035       -3.28144288474583        1.71153126457299
C            8.12302206870047       -2.56792989340555        0.62650503047016
C            7.69572671448874        1.35610489456604       -0.55454264235855
C            6.99466405437311        2.29457547547072        0.19043211058167
C            7.47048798859541        3.59047868036109        0.28199847512147
C            8.64111087244362        3.95009629250738       -0.36665533614697
C            9.33706006012084        3.01555804681794       -1.11632613927023
C            8.86348461958891        1.71955342771614       -1.21048752570562
C            5.36489594512604       -0.36003118860812       -0.53716829065645
C            4.62132215612642       -0.32762137509038       -1.70918794471891
C            3.24183408857091       -0.28446067221387       -1.65731886849940
C            2.58711464051905       -0.26995454709762       -0.42834415505458
C            1.11153489433654       -0.21774724199138       -0.36340325277488
C            0.35633300519660       -1.32954669942546       -0.76134151871554
C            0.97061469936158       -2.52902320427687       -1.20883077045989
C            0.22648144870196       -3.59294131831109       -1.61574461057984
C           -1.18082246605977       -3.52144536681802       -1.60559543581725
C           -1.80815979724427       -2.39838465193159       -1.16224952295307
C           -1.07106467305828       -1.27423321212944       -0.70497378889239
C           -1.70612285951644       -0.12054269765366       -0.22300326428098
C           -3.18037456568515       -0.07295109437865       -0.14173040188831
C           -3.86317510976145       -0.87651348587048        0.76648936256178
C           -5.24088517380006       -0.83036228709443        0.85338069680249
C           -5.96217796920227        0.01285586300614        0.01404243203296
N           -7.36337997662706        0.06143207360650        0.09191037781256
C           -8.21923920821866       -1.00957666282675        0.24071266494841
C           -7.98884164122673       -2.37728009812251        0.23461612563861
C           -9.09882880902321       -3.19200074568802        0.38111638693728
C          -10.36794386964414       -2.62837974298489        0.51376696262007
N          -10.60905336970597       -1.33224749255739        0.48611923450250
C           -9.55741049972066       -0.53928939696526        0.34630414447524
C           -9.49236879900223        0.88875713083191        0.24880946763436
C          -10.40826250702878        1.92934306178523        0.28229418461845
C           -9.90786979498599        3.21401545387058        0.14947578527190
C           -8.53725423116552        3.40857056713190       -0.00528991310084
N           -7.64072507013855        2.43662007620041       -0.04078705727931
C           -8.12031383672643        1.20989199394434        0.08191464148636
C           -5.28871506609269        0.82507075038198       -0.89206366903233
C           -3.91055944438419        0.78272033145423       -0.96211446147164
C           -0.94955050168824        0.98737801615317        0.18559671489106
C           -1.55890169154318        2.15926564554819        0.70687292154459
C           -0.81437061664309        3.23637674587653        1.07717428508077
C            0.58831179044952        3.21118420814087        0.94519728861617
C            1.21309183928356        2.09825563390020        0.47377837794068
C            0.47671629870048        0.94351212938676        0.09895888003053
C            3.33941197008518       -0.31006533636225        0.74322203740076
C            4.71940255312844       -0.35717522054508        0.69222823541678
H            7.76254646312101        0.46736071179596        2.08099443006864
H            8.60140188280422       -0.80936906189884        4.01747588628742
H            9.13800007749203       -3.20199182478422        3.78178812287725
H            8.84205068774335       -4.32867708745543        1.60703742850663
H            7.99558560228934       -3.03413001810408       -0.34008962476407
H            6.07574434896996        2.01440699163115        0.68653326999256
H            6.92603545884837        4.32374107519931        0.85951889538418
H            9.00780445950958        4.96334879147060       -0.29139658834106
H           10.24576154288722        3.29885504005428       -1.62687879470454
H            9.38005772609306        0.97422168072974       -1.79831200715507
H            5.14435261133935       -0.34720412670778       -2.65468660561496
H            2.66045615943908       -0.25579745815778       -2.56776277500953
H            2.04904203777390       -2.58375752683900       -1.22024448674961
H            0.70829671762379       -4.49815058098049       -1.95457502950794
H           -1.75593656721466       -4.36797431649417       -1.95109305943038
H           -2.88664729653167       -2.34399517809766       -1.15656256197120
H           -3.30422483610460       -1.52902807139391        1.42159539429156
H           -5.75687079614731       -1.43071469799255        1.58757566774149
H           -7.00025195264403       -2.79279219695545        0.10601293628021
H           -8.98684483134980       -4.26511760227875        0.38576994316822
H          -11.23804252460320       -3.25918013941898        0.63530654956015
H          -11.46200524576007        1.73356191929523        0.40764430199419
H          -10.56837390148129        4.06657966516112        0.16579482972090
H           -8.13005583828121        4.40552702380248       -0.10841931026059
H           -5.85118613815829        1.49099889028583       -1.52592610670925
H           -3.38818211600347        1.41083318308049       -1.66874117456696
H           -2.63363136624440        2.18176699055196        0.80750629787219
H           -1.29318702661432        4.12059401776442        1.47124543705339
H            1.16216205521306        4.08246715050394        1.22511873198915
H            2.28818475752610        2.07913729596319        0.37241199534031
H            2.83091997776996       -0.31115718515498        1.69712416192178
H            5.29494114822861       -0.40278571751772        1.60623103142260
