  85
       -134.46434329
 O          7.6220824413       -1.4287729519       -1.7046990225
 P          7.1735533675       -0.5409094799       -0.6258939613
 C          7.8035414510       -1.0246227730        1.0154279317
 C          7.9795528397       -0.1286752067        2.0611181143
 C          8.4535537229       -0.5824495538        3.2791229704
 C          8.7529645050       -1.9241837064        3.4541047618
 C          8.5845069262       -2.8172305920        2.4082794326
 C          8.1099381195       -2.3668327138        1.1898195913
 C          7.7200539947        1.1869843415       -0.8399364761
 C          7.0072260420        2.2866733794       -0.3831619602
 C          7.5152752887        3.5597732504       -0.5725942249
 C          8.7302240656        3.7369518578       -1.2146687024
 C          9.4385663760        2.6399369811       -1.6779322108
 C          8.9328031668        1.3665271832       -1.4909995835
 C          5.3657389356       -0.4724677884       -0.4512310497
 C          4.6158122324       -0.8364258097       -1.5638290667
 C          3.2391073275       -0.7923635716       -1.5234805711
 C          2.5733658677       -0.3640808935       -0.3682271902
 C          1.1181827268       -0.2957447158       -0.3219396073
 C          0.3403368262       -1.4541716385       -0.6265129987
 C          0.9347938036       -2.6901501650       -0.8980631759
 C          0.1764233206       -3.7925935284       -1.2844414118
 C         -1.1903819785       -3.6722481553       -1.4129362925
 C         -1.8137197564       -2.4696907114       -1.0871588320
 C         -1.0840155974       -1.3676685115       -0.6330031017
 C         -1.7252175332       -0.1603339824       -0.2148768009
 C         -3.1768852320       -0.0966022280       -0.1485076429
 C         -3.9058521901       -1.0425597552        0.5834429660
 C         -5.2788938558       -0.9754415905        0.6669857090
 C         -5.9746675601        0.0257413247       -0.0096638924
 N         -7.3714185580        0.0961176207        0.0650070982
 C         -8.2549717725       -0.9641426519        0.0635919337
 C         -8.0616381386       -2.3220391660       -0.1435368744
 C         -9.1919473378       -3.1212017322       -0.1062747977
 C        -10.4451367559       -2.5508601528        0.1170537888
 N        -10.6521393751       -1.2579896005        0.2743783842
 C         -9.5808090823       -0.4803627935        0.2414005010
 C         -9.4805671941        0.9454139522        0.3444464916
 C        -10.3712302086        1.9923493956        0.5270776397
 C         -9.8403409002        3.2708028553        0.5736020306
 C         -8.4653595008        3.4523843840        0.4429452271
 N         -7.5930121370        2.4736016781        0.2684825046
 C         -8.1013798898        1.2534903887        0.2188234879
 C         -5.2650369491        0.9742128895       -0.7440072346
 C         -3.8907112798        0.9176235950       -0.8008980161
 C         -0.9443835267        0.9825706515        0.1422997042
 C         -1.5294433447        2.1503074272        0.6402197595
 C         -0.7714861876        3.2894876594        0.9021914649
 C          0.5865870177        3.2788395335        0.6680658347
 C          1.2050054225        2.1067380588        0.2398322755
 C          0.4771440083        0.9321237010        0.0274203077
 C          3.3413275055       -0.0055483685        0.7473533787
 C          4.7176230841       -0.0690521140        0.7118912111
 H          7.7615216245        0.9206033814        1.9173428399
 H          8.5947392850        0.1130539016        4.0939681471
 H          9.1246816043       -2.2722253977        4.4067435039
 H          8.8252866972       -3.8615072583        2.5435521851
 H          7.9809111831       -3.0396439022        0.3540426885
 H          6.0546626957        2.1484519792        0.1087680529
 H          6.9610816331        4.4174630992       -0.2190839795
 H          9.1223715096        4.7331422662       -1.3584200549
 H         10.3825557271        2.7790221869       -2.1840895842
 H          9.4598402177        0.4951547045       -1.8527098648
 H          5.1376814877       -1.1572721619       -2.4541025196
 H          2.6606540158       -1.0537723840       -2.3978564522
 H          2.0042629443       -2.7979862247       -0.8037748127
 H          0.6686596272       -4.7296604560       -1.4965742628
 H         -1.7862021608       -4.5065524790       -1.7516276230
 H         -2.8841917626       -2.3884348721       -1.1971192183
 H         -3.3736388145       -1.8051172492        1.1331308449
 H         -5.8156246346       -1.6791321917        1.2853822600
 H         -7.0862531839       -2.7405511318       -0.3426478679
 H         -9.1078842843       -4.1860208299       -0.2581864849
 H        -11.3307288945       -3.1703146306        0.1566675372
 H        -11.4292378797        1.8058556357        0.6278873489
 H        -10.4801506811        4.1281090439        0.7111122328
 H         -8.0340251456        4.4437770195        0.4787480818
 H         -5.8032474503        1.7524078977       -1.2600168563
 H         -3.3503283697        1.6401506204       -1.3943203858
 H         -2.5907078906        2.1737466786        0.8333417153
 H         -1.2586681866        4.1784971648        1.2733350388
 H          1.1794178427        4.1669808488        0.8280581937
 H          2.2694768856        2.1103203424        0.0622681865
 H          2.8375553914        0.2909375534        1.6565940675
 H          5.2936609955        0.1800323173        1.5922548180
