  85
       -134.53265027
 O          7.6296490649       -0.9991544479       -1.9760751359
 P          7.1790462483       -0.3783484855       -0.7252587778
 C          7.8069818035       -1.2171968528        0.7664906557
 C          7.9915234655       -0.5771879054        1.9845318813
 C          8.4590069532       -1.2948567127        3.0711441191
 C          8.7418865708       -2.6455534743        2.9444497500
 C          8.5645744337       -3.2828554238        1.7270190346
 C          8.0981187117       -2.5681327017        0.6387433458
 C          7.6980034452        1.3612013968       -0.5535222445
 C          6.9915499539        2.3032711512        0.1818545978
 C          7.4657055502        3.6000867679        0.2691327038
 C          8.6403402724        3.9570295767       -0.3737979453
 C          9.3421625581        3.0187219209       -1.1132859549
 C          8.8700016320        1.7219284566       -1.2035863787
 C          5.3673493111       -0.3567370631       -0.5404912540
 C          4.6250340766       -0.3425300758       -1.7134886239
 C          3.2452760623       -0.3014901434       -1.6636452485
 C          2.5891903821       -0.2713542887       -0.4357393753
 C          1.1138110476       -0.2203251950       -0.3712089332
 C          0.3588164241       -1.3326452299       -0.7684150446
 C          0.9728256583       -2.5325719375       -1.2152299067
 C          0.2285885868       -3.5965101918       -1.6218834732
 C         -1.1787399709       -3.5249237223       -1.6121227849
 C         -1.8058853145       -2.4019912379       -1.1683502104
 C         -1.0685865292       -1.2780257642       -0.7108036450
 C         -1.7037721707       -0.1255093465       -0.2265108944
 C         -3.1779039183       -0.0786433481       -0.1433940186
 C         -3.8598499923       -0.8835463650        0.7642009776
 C         -5.2374938688       -0.8369535557        0.8528338560
 C         -5.9591894426        0.0083023515        0.0159980120
 N         -7.3601915842        0.0589918999        0.0962092619
 C         -8.2181825949       -1.0106219891        0.2417455966
 C         -7.9904975484       -2.3787376107        0.2288878054
 C         -9.1021180783       -3.1918458712        0.3717498648
 C        -10.3699345510       -2.6261081270        0.5080699293
 N        -10.6083489955       -1.3293525957        0.4875371993
 C         -9.5551812695       -0.5378186961        0.3507883505
 C         -9.4870729584        0.8905010365        0.2591973706
 C        -10.4003130491        1.9332436860        0.2973556879
 C         -9.8970728304        3.2171264143        0.1675048148
 C         -8.5262647862        3.4090092599        0.0113605033
 N         -7.6321188475        2.4350135924       -0.0280590261
 C         -8.1145111213        1.2091378809        0.0914791956
 C         -5.2865791517        0.8213158098       -0.8899866215
 C         -3.9086000295        0.7784107089       -0.9618639370
 C         -0.9475549462        0.9826033298        0.1823282626
 C         -1.5573830625        2.1528208517        0.7066814996
 C         -0.8135786507        3.2305471337        1.0767488191
 C          0.5886396042        3.2077493258        0.9403643240
 C          1.2138575988        2.0963717847        0.4656871280
 C          0.4785485716        0.9404239722        0.0926089374
 C          3.3406011180       -0.2940151037        0.7371429281
 C          4.7205426211       -0.3386012793        0.6882381090
 H          7.7829455101        0.4795927840        2.0775410579
 H          8.6062797478       -0.7989790179        4.0197965708
 H          9.1068730769       -3.2005740066        3.7962854522
 H          8.7910666633       -4.3344368821        1.6281722660
 H          7.9613809148       -3.0379750434       -0.3249189251
 H          6.0695534963        2.0254674532        0.6731461763
 H          6.9165968824        4.3363574077        0.8385466774
 H          9.0053775861        4.9711290118       -0.3021718493
 H         10.2544140873        3.2995453111       -1.6187351044
 H          9.3913876088        0.9736646884       -1.7833676015
 H          5.1491216765       -0.3733198826       -2.6581080987
 H          2.6651705821       -0.2859406615       -2.5752285701
 H          2.0512055855       -2.5879268033       -1.2260862675
 H          0.7103115382       -4.5020558599       -1.9599562349
 H         -1.7538381001       -4.3713844261       -1.9578075121
 H         -2.8843571731       -2.3473375043       -1.1623928255
 H         -3.3002845631       -1.5369228806        1.4179433397
 H         -5.7529766866       -1.4381822884        1.5867171229
 H         -7.0027269041       -2.7953191972        0.0974540718
 H         -8.9926185765       -4.2652146545        0.3702031617
 H        -11.2413129035       -3.2557175927        0.6265313897
 H        -11.4544309027        1.7398420548        0.4230882100
 H        -10.5556933301        4.0711115249        0.1865003316
 H         -8.1168205593        4.4051921284       -0.0900762709
 H         -5.8496856913        1.4881105431       -1.5223600604
 H         -3.3867324067        1.4065030750       -1.6689011766
 H         -2.6318209464        2.1733492940        0.8106951229
 H         -1.2927305540        4.1131711488        1.4739939218
 H          1.1620492703        4.0797875029        1.2187917636
 H          2.2885178293        2.0803340964        0.3596704859
 H          2.8309173354       -0.2833014215        1.6903513599
 H          5.2954631275       -0.3701933189        1.6032499222
