98
 energy: -161.549682585710 gnorm: 0.000071742020 xtb: 6.7.1 (edcfbbe)
N           11.48443712630455        2.22836392149869        0.11905781986061
C           10.37005046178941        1.95552158494970        0.03700259372461
C            9.01214726656135        1.60526536344085       -0.05797149334880
C            8.62303659447970        0.27088809490870        0.06844239278065
C            7.27680496831731       -0.08785824519227       -0.02764200894789
N            6.88117546260856       -1.35732747590922        0.04744843522901
C            5.59311604844474       -1.68847290027068       -0.03708164406565
C            5.27580819939238       -3.11835911688053       -0.06494590481699
C            5.98012632965351       -3.99121414556787        0.76420323873162
C            5.71562570598219       -5.34742280823578        0.73553974888627
C            4.75790457421191       -5.85252434404037       -0.12923923285229
C            4.07243228462768       -4.99392613744760       -0.97471435312357
C            4.32688175547475       -3.63601677212403       -0.94643141804277
C            4.61858060201822       -0.67758496761339       -0.13610987358590
C            3.18202218078645       -0.93453305461752       -0.06587165990600
C            2.31506683581018       -0.22356162309820       -0.89795232631207
C            0.95230837641790       -0.41854767455858       -0.82375159087616
C            0.42781396258664       -1.31555802337448        0.10360428589300
N           -0.95955448008336       -1.53517853044438        0.16433291792765
C           -1.52721586527357       -2.74770539475623       -0.17848715060444
C           -0.89437507680279       -3.95831210443359       -0.41641143215569
C           -1.67159684210882       -5.02288579631657       -0.83075007654099
C           -3.03951110573285       -4.86811643172598       -1.04082560662296
C           -3.66945535624776       -3.65944669147303       -0.81989770520222
C           -2.92259471456106       -2.58184652455447       -0.34817131734086
C           -3.19971871522455       -1.20071758175906       -0.06206775612500
C           -4.35366534725853       -0.40227741822009       -0.02357331182764
C           -4.26788263466962        1.01583244690216        0.05038063345046
C           -5.62052041881902        1.50467944265836        0.04734542703853
C           -6.21991773998984        2.75400921094206        0.19517843371677
C           -7.59753698083480        2.84452458516763        0.20142226421857
C           -8.40030601472221        1.71167111552295        0.09429309803517
C           -7.83722564779382        0.45482580388008       -0.01045240803858
C           -6.45361907633209        0.36281098825954       -0.04048760793901
N           -5.67176225392999       -0.77394056655032       -0.08403595901122
C           -6.20482563998620       -2.06065701854523        0.12970337714470
C           -7.13733171253337       -2.58526178275699       -0.75941854472442
C           -7.68899164532465       -3.83152119412402       -0.51834145827658
C           -7.31596624380814       -4.55437291450522        0.60330639272976
C           -6.38762659776855       -4.02963870025237        1.48828751471528
C           -5.83370530694155       -2.78355405711098        1.25914970473067
C           -2.99928625505794        1.59770178767487        0.20877309603200
C           -1.85521717660636        0.79169870943190        0.46347469251171
C           -0.80430717117272        1.69003939026000        0.85373338049922
C            0.47349053482815        1.53702900336595        1.38768650254144
C            1.23570312861523        2.66210109608409        1.63195399398617
C            0.75154168463873        3.93845937779558        1.35499229875259
C           -0.53632620405869        4.12371279392795        0.88948996945063
C           -1.31930693039011        2.99796414264164        0.68187176037680
N           -2.64107428408691        2.92126842399420        0.28864817210409
C           -3.34694341127788        4.02358591742913       -0.22965422282285
C           -3.81683540835827        3.98291107659536       -1.53927580412125
C           -4.47747958014159        5.07736227288710       -2.06609666589210
C           -4.66356752344146        6.21580354652004       -1.29809817625646
C           -4.19140474555906        6.25752233841277        0.00395748394705
C           -3.53387347613006        5.16546604805188        0.54323481831332
C           -1.94918187868479       -0.58666329516232        0.21803371062837
C            1.28446700874917       -2.02236392478884        0.94454414141593
C            2.64789780361116       -1.83165909805150        0.86138210988090
N            4.99940958594416        0.59680502349309       -0.26978681805470
C            6.28348628578769        0.93822350143254       -0.24118462915509
C            6.69482206743603        2.26838065133055       -0.37761266300088
C            8.04429072053647        2.60526756284180       -0.28742444307262
C            8.44443110556645        3.94761561840824       -0.41547610014684
N            8.75546711872618        5.04954994687409       -0.52165986016637
H            9.36114227166646       -0.49891035607997        0.23185345720093
H            6.72869267669610       -3.58886175117902        1.43060676784245
H            6.26226848566066       -6.01260282593102        1.38784750148741
H            4.55309059530183       -6.91251053839492       -0.15132721244519
H            3.34050213302717       -5.38543693644633       -1.66594616988615
H            3.80408525048324       -2.97325114447901       -1.62045875804308
H            2.72816366856396        0.47726362258414       -1.60684835220568
H            0.28777828791036        0.12485586198132       -1.47800230105231
H            0.17302561138960       -4.06103468627194       -0.29856251508535
H           -1.20758614085057       -5.97977256432574       -1.01688477861094
H           -3.61842939339312       -5.70669964792520       -1.39774764460743
H           -4.71838478343607       -3.55987960454893       -1.03566596983923
H           -5.63131226451871        3.64468802250068        0.31959630565927
H           -8.06141900855206        3.81388032025831        0.30661699061259
H           -9.47481830569995        1.81463636306117        0.11296464550628
H           -8.45545753443730       -0.42833109555143       -0.05102181075995
H           -7.40930439786726       -2.02479358844087       -1.64158932553288
H           -8.40860200727714       -4.23992992181135       -1.21221620594066
H           -7.74808301455843       -5.52639332215743        0.78695967465655
H           -6.09737378300030       -4.59009175611434        2.36414913139973
H           -5.11408799317513       -2.36530324466774        1.94663069731697
H            0.86425475856656        0.56491584164862        1.63406094833208
H            2.22958206870013        2.54884041182125        2.03891550971410
H            1.38378052239483        4.79649219925634        1.52789736613603
H           -0.91828619276464        5.11431403820215        0.69832254233231
H           -3.66276261524536        3.09369748711831       -2.13194338113623
H           -4.84303725074415        5.04271613405317       -3.08126826373463
H           -5.17664363032961        7.06995260041391       -1.71330888918873
H           -4.34012829245820        7.14141261169294        0.60613746855468
H           -3.18584931106294        5.18275938533067        1.56520810663499
H            0.87488658647687       -2.69778985372368        1.68055295947801
H            3.30496537655338       -2.36292144299943        1.53302672775373
H            5.95103514720121        3.03234546910930       -0.54246208763567
