98
 energy: -161.595189704655 gnorm: 0.000122962960 xtb: 6.7.1 (edcfbbe)
N           11.42956055644985        2.40522990586495        0.65273745305560
C           10.32666918245694        2.09150854620970        0.66768152482030
C            8.97079614232316        1.69086257961790        0.67886456171452
C            8.61292963641341        0.44519260498891        0.21097265476315
C            7.26316971362137        0.05531180844583        0.23676583181114
N            6.91549879811408       -1.19717306027853       -0.11817966423193
C            5.64902997983408       -1.53296390147636       -0.10803017040472
C            5.33773586062243       -2.94600900774590       -0.33399751892237
C            4.33401018854654       -3.58931207961434        0.39065017118808
C            4.07574592094412       -4.92966392240552        0.17474386486905
C            4.80724202433011       -5.64052330046889       -0.76413247084751
C            5.81817352940518       -5.01152024143368       -1.47378214809936
C            6.09066698535254       -3.67455650334726       -1.25440932850986
C            4.63344654470483       -0.54180751652440        0.15746666584088
C            3.21360914390561       -0.78145732310632       -0.08458485067109
C            2.77966391369043       -1.50860735958901       -1.19478548959320
C            1.43353253210034       -1.70466874281126       -1.41818566331273
C            0.49033985253729       -1.18700528079945       -0.52925013806467
N           -0.87128625458011       -1.42501184601062       -0.71799893868367
C           -1.42349359225554       -2.69378381397116       -0.79485863161786
C           -0.79313623146141       -3.91197839904205       -0.99450431851488
C           -1.58180948356575       -5.04266211229357       -1.09479242288523
C           -2.96796678229954       -4.95495814165366       -1.01738361426762
C           -3.59565997838584       -3.75005615841343       -0.77006790714598
C           -2.82212740613057       -2.60509778159447       -0.60317080213030
C           -3.10968005098029       -1.22052242321439       -0.33233530004548
C           -4.23628215791673       -0.49792690149263        0.09191911703680
C           -4.21645231259581        0.91626717547506        0.16154438831682
C           -5.48261220366877        1.31799207471369        0.71352294571858
C           -6.02773024959816        2.52122545653577        1.15516338122235
C           -7.29711612120072        2.52736351261275        1.69699601098904
C           -8.02983311895040        1.35195519990655        1.83880203827916
C           -7.49479229439956        0.13630448473463        1.46164561010433
C           -6.22593947276943        0.12955943319974        0.90157774799818
N           -5.46326599977356       -0.95589465210461        0.51576152523565
C           -5.79766336369808       -2.26954429039894        0.89848066568830
C           -6.95195702993719       -2.86525350467120        0.40124184953851
C           -7.30031507863200       -4.13960950134561        0.81342477450375
C           -6.50341507660141       -4.82210573057655        1.71802040176241
C           -5.35583036927325       -4.22652017714462        2.21590445831977
C           -5.00274113813672       -2.95142221155667        1.81437721197103
C           -3.06351925662256        1.58723770492640       -0.27667517694796
C           -1.86873711456462        0.88316805588613       -0.56478010204420
C           -0.90239123596812        1.86751684593519       -0.97680067690775
C            0.38975090956914        1.82637207733875       -1.49555143923806
C            1.01503947835051        3.00534914410017       -1.84803488987226
C            0.36837525079257        4.23202890316758       -1.72791259515768
C           -0.93065220593297        4.30156741892687       -1.26568634233524
C           -1.55393535643014        3.12049871162371       -0.89079884144449
N           -2.85415275328527        2.93483304909078       -0.46416680945292
C           -3.83625897165461        3.93284003964419       -0.60830047707676
C           -4.89806573321922        3.73892700467418       -1.48646052487707
C           -5.84092007739889        4.73570687287490       -1.65621807719507
C           -5.72543973326638        5.93086119935307       -0.96473900801750
C           -4.66490910395019        6.12677929330704       -0.09521885769921
C           -3.71991037699125        5.13231500482345        0.08679749414975
C           -1.89413332830910       -0.51908715414172       -0.49891144770334
C            0.92080542300367       -0.44301083245722        0.57133158248126
C            2.26523553725049       -0.23046138175069        0.77970588874594
N            4.96716810322329        0.64238112855721        0.61352889554287
C            6.27123806162836        0.96269205299550        0.70622262416627
C            6.65322731633344        2.22278419536148        1.19978826863861
C            7.98211775424570        2.58481157895561        1.18610798787535
C            8.38058560985457        3.85418842631544        1.66620235486381
N            8.69632715599559        4.88428304005216        2.05862807718573
H            9.35414295246175       -0.24533410021973       -0.16144034037812
H            3.77427105109029       -3.04509980232197        1.13689679974927
H            3.30046144281879       -5.42138408615405        0.74328591952036
H            4.59510986010496       -6.68516366921739       -0.93574827353516
H            6.39766416655117       -5.56498123036024       -2.19747809691238
H            6.87677484696891       -3.17279439891927       -1.79793252847514
H            3.49835892651039       -1.89104615250755       -1.90378819055394
H            1.10299809891674       -2.22883829348105       -2.30146345773729
H            0.28032238789393       -3.98356142808883       -1.07311246499480
H           -1.11505709880443       -6.00284406452056       -1.25785769099833
H           -3.56500070187648       -5.84563343898320       -1.14736889761875
H           -4.67041030017336       -3.70593091767749       -0.72981599985899
H           -5.46894253269442        3.43935891462837        1.10179589828816
H           -7.72419408595715        3.46180908256006        2.03097955808824
H           -9.01874813849171        1.38801848818917        2.27194492807638
H           -8.04040401585305       -0.78216147859128        1.61638274818211
H           -7.55994174104486       -2.33240819551867       -0.31526308536783
H           -8.19461808794063       -4.60189368822608        0.42203722832359
H           -6.77737865941385       -5.81725870032551        2.03485422092275
H           -4.73461730862989       -4.75514662573377        2.92342952144416
H           -4.11261283032138       -2.47821742573130        2.20128151032627
H            0.90283688800027        0.89324521429087       -1.64757438185985
H            2.02161278653108        2.97251202774882       -2.23958354245609
H            0.88024245181115        5.13728759301803       -2.01987504800626
H           -1.45103457259130        5.24583203327736       -1.21715104623303
H           -4.97764962326924        2.80648473633462       -2.02521815025390
H           -6.66540123789323        4.58069594576562       -2.33610371734897
H           -6.46152042190617        6.70872057709067       -1.10212386969034
H           -4.57436537323661        7.05551569806778        0.44881909951011
H           -2.90130729636737        5.27115642079519        0.77774223518644
H            0.19068547882617       -0.03211386962860        1.25145967818656
H            2.60482075628777        0.34513492568240        1.62661569599776
H            5.89344390682245        2.89723308527255        1.56406877270569
