98
 energy: -161.549649128582 gnorm: 0.000092510938 xtb: 6.7.1 (edcfbbe)
N           11.47122110501160        2.36288501350342        0.86591313698403
C           10.35868950955580        2.07311111444971        0.82895654093440
C            9.00374307270398        1.70355432527132        0.77654780599090
C            8.64242908603172        0.42522333275650        0.34876262855280
C            7.29889040025638        0.04806689591572        0.29725788912813
N            6.92707596404755       -1.18022071877398       -0.05841434042485
C            5.64178294621203       -1.52581192929554       -0.11892719899978
C            5.34424530486533       -2.93285388303953       -0.39673797614390
C            4.34514318756165       -3.61687624649171        0.29587151053549
C            4.10592482077313       -4.95208490595938        0.03277465290335
C            4.85803844853306       -5.62401515934346       -0.91838847610450
C            5.86712338454003       -4.95677532797924       -1.59421657108853
C            6.11514346280025       -3.62257259386184       -1.33246534184454
C            4.64793715480383       -0.55775469451245        0.12235939160735
C            3.22412487607685       -0.80317701419332       -0.08949495619989
C            2.76565585413580       -1.49905134745378       -1.21040749065050
C            1.41539033833685       -1.69545616587964       -1.40974256174002
C            0.49330900930841       -1.19897909475180       -0.48923226338855
N           -0.87975931733110       -1.43449046581800       -0.65469177373334
C           -1.42819573414466       -2.70158921930057       -0.72172514513806
C           -0.79057730611808       -3.91978540385246       -0.90215951621237
C           -1.57620859015778       -5.05219905816007       -1.00354058081797
C           -2.96520706074820       -4.96728632453073       -0.94629161187112
C           -3.60150790333032       -3.76276638269125       -0.72230378845662
C           -2.83198344756904       -2.61345264337325       -0.55566964069294
C           -3.12170220667927       -1.22871549377564       -0.30577539703067
C           -4.25054815819479       -0.50286364401998        0.10577116316651
C           -4.23185346865238        0.91758809624747        0.16041910342340
C           -5.49835610759516        1.32234937953123        0.70613926843103
C           -6.04819224912189        2.52939599090578        1.13295101025602
C           -7.31911296716224        2.53524594791358        1.67251047350428
C           -8.04839150447161        1.35854935369894        1.82628934945730
C           -7.50882287918314        0.13960166433948        1.46417083561888
C           -6.23854912973852        0.13262298794724        0.90733399633011
N           -5.47127747185925       -0.95380451746186        0.53647049633290
C           -5.82069878334988       -2.26969700974335        0.90466869388820
C           -6.96339226433933       -2.85782229987709        0.37359434121459
C           -7.32637974157947       -4.13263581635936        0.77213783081655
C           -6.55690575421714       -4.81918342947394        1.69742419990447
C           -5.42205842494634       -4.22870103461671        2.22990568690416
C           -5.05260308609576       -2.95413039041682        1.84080873392987
C           -3.07668890537854        1.58405160332801       -0.27782487750597
C           -1.87303859533409        0.87404632341156       -0.54670607913829
C           -0.90471808786581        1.85554368320374       -0.95675559750127
C            0.39720246646269        1.81229852860108       -1.45165327601432
C            1.02288795350884        2.99084876483746       -1.80707171375588
C            0.36922462298005        4.21652152859484       -1.71311742585737
C           -0.93841740194178        4.28767164828331       -1.27305270097779
C           -1.56181365092666        3.10814801401785       -0.89471937896840
N           -2.86743850288087        2.92259061678595       -0.48444357033206
C           -3.84588638376550        3.92688466987239       -0.62521802322152
C           -4.90194885256484        3.74187344755067       -1.51194640211843
C           -5.83935035810890        4.74430063824771       -1.68025851579981
C           -5.72390328600654        5.93292820077797       -0.97726569609537
C           -4.66835938952294        6.11864754752655       -0.09914791821787
C           -3.72713910342573        5.11985473482440        0.08030373260976
C           -1.89611568409738       -0.52711251338580       -0.46703444024678
C            0.94263521592816       -0.48888470942437        0.62320290742390
C            2.29249641164509       -0.28447224588545        0.81248628995209
N            5.00147968552049        0.66146524558571        0.54097528690494
C            6.27985855449078        1.00334728859654        0.66411982976146
C            6.66325873154079        2.27444893392744        1.10500786995977
C            8.01036063966665        2.62721471518549        1.16321462107835
C            8.38521351990782        3.90971003787877        1.60259441327603
N            8.67711661826619        4.96135223719746        1.96471668506092
H            9.40003777899189       -0.28920743533531        0.06637097637410
H            3.77006348989813       -3.10353403065884        1.05254671948093
H            3.33302358376289       -5.47306704690991        0.57863629816114
H            4.66540342790250       -6.66639247830366       -1.12413581574774
H            6.46620715160269       -5.47795924164079       -2.32648500848240
H            6.90237349619444       -3.09546203269860       -1.85084392022319
H            3.47303816151910       -1.86617702717612       -1.93839357023178
H            1.06800071070987       -2.20258235989079       -2.29687412920757
H            0.28391663354478       -3.98453514556839       -0.96743513939895
H           -1.10578182779211       -6.01263742403278       -1.15116381277259
H           -3.55623823309278       -5.86142396127742       -1.07584591651710
H           -4.67647109353693       -3.72124369130124       -0.70142671086218
H           -5.49341563475015        3.44865659499813        1.07014039780469
H           -7.75035818592902        3.47117809567218        1.99497350284933
H           -9.03795434881547        1.39650531317129        2.25640699798410
H           -8.05102005624417       -0.77902394568802        1.62627506085035
H           -7.55011626536409       -2.32057458767781       -0.35689436470332
H           -8.21083705102134       -4.59101237380900        0.35546297097915
H           -6.84295673941259       -5.81375193436499        2.00468266156116
H           -4.82376183240035       -4.76024603844610        2.95437983116880
H           -4.17343010661615       -2.48422514076923        2.25527317660362
H            0.91893047072952        0.88090919405572       -1.57801967528185
H            2.03691803074685        2.95744889108993       -2.17729871031591
H            0.88354219030670        5.11956200589788       -2.00579693747683
H           -1.46177140576103        5.23048819435872       -1.24151953934081
H           -4.97997681592078        2.81533729728004       -2.06057189330544
H           -6.65889973524384        4.59896684552298       -2.36772514418860
H           -6.45572474294243        6.71473188673918       -1.11336585718797
H           -4.57770737198355        7.04260872496940        0.45233714473105
H           -2.91180603514205        5.25043778987397        0.77639371660182
H            0.22760142459031       -0.09581129228750        1.32993944321154
H            2.64624030200290        0.26909440152909        1.66854284666272
H            5.90043318432681        2.98338991478131        1.38693321952615
