98
 energy: -161.594338507128 gnorm: 0.000031583651 xtb: 6.7.1 (edcfbbe)
N           12.08933786596895        2.25364833814144       -0.85854216906077
C           11.03399055950585        1.81437607777127       -0.94916677587953
C            9.73136768621667        1.27294939185211       -1.04622858843814
C            9.05866307132159        0.87802441594449        0.08947526249003
C            7.76908954250801        0.33078771169512       -0.02282846803227
N            7.15168088605874       -0.17410817892850        1.06227891271516
C            5.94121773289475       -0.66098249439642        0.93946602722945
C            5.39342899768221       -1.36920700142726        2.09727511810102
C            4.61563888858092       -2.51705905481507        1.94170832985607
C            4.13690301765644       -3.18460567534393        3.05293684706720
C            4.42446964443411       -2.71828647108973        4.32640617458476
C            5.21156175234731       -1.58877654022634        4.48811548023430
C            5.70154066849682       -0.92131521103949        3.38191313664864
C            5.22861911220638       -0.52942473597629       -0.30969094999429
C            3.79262847223893       -0.77027905755174       -0.43250764882146
C            3.29169874892661       -1.35134097033744       -1.59843810320084
C            1.93918209114417       -1.57719599633730       -1.74390328373631
C            1.05593882420735       -1.19393120450200       -0.73519544755171
N           -0.31431799563535       -1.43914186218948       -0.86670491471683
C           -0.83830788767509       -2.71660546474237       -0.96316547478220
C           -0.16842239079152       -3.90895885274712       -1.19003434655624
C           -0.90119125957415       -5.07966896992022       -1.17281938088086
C           -2.26493308965573       -5.05898146227837       -0.89896856489875
C           -2.92883242891723       -3.87503644175507       -0.64575192161090
C           -2.22739636400629       -2.67358095019570       -0.70023108233515
C           -2.55110300116197       -1.29210175217697       -0.44760605682915
C           -3.70654383828667       -0.59391022347651       -0.05690328482616
C           -3.63065006215297        0.75237802671386        0.37688290278862
C           -4.90990781573532        1.06813501890617        0.95286646540722
C           -5.42028116459672        2.13652336737229        1.68565212167569
C           -6.74136118777559        2.10694191422189        2.08432224958602
C           -7.56830143292754        1.03367726795203        1.76408984031302
C           -7.07332759508031       -0.06628112309000        1.09122549770509
C           -5.73530537756169       -0.05826080446022        0.72621045336914
N           -4.99644769546470       -1.05147139127436        0.11242523267340
C           -5.58981045799694       -2.15717172148556       -0.52215898937883
C           -5.43315987578238       -2.33106227877103       -1.89452906605183
C           -6.04737585661038       -3.39493798967432       -2.52880194788125
C           -6.82926265196969       -4.28138876534179       -1.80561238983871
C           -6.98786810917166       -4.10764633552993       -0.44029490928559
C           -6.37005037301042       -3.05091947109922        0.20536695624699
C           -2.45429489395094        1.47020704353217        0.11028354962136
C           -1.29952230809612        0.82320684654577       -0.39108743840640
C           -0.32564846908592        1.85218421543877       -0.63933845805588
C            0.92373812740764        1.90115540932284       -1.25358634739878
C            1.57263589816739        3.11418178219576       -1.36699715642986
C            0.98911355302648        4.29317062300158       -0.91107137035656
C           -0.27390743537562        4.28574225330173       -0.35321332355335
C           -0.92080525573205        3.06583339308453       -0.22213254851528
N           -2.20068982970316        2.81790251144104        0.23391418150235
C           -3.14287471904912        3.85377788058883        0.38814281038513
C           -4.23178281509220        3.93774386287070       -0.47344938151928
C           -5.13139861979474        4.97973644185427       -0.34490027023834
C           -4.94542489910243        5.94560995776748        0.63081199021893
C           -3.85631844934844        5.86693247803287        1.48334451673533
C           -2.95388871097462        4.82431585465582        1.36622464558890
C           -1.33921803608376       -0.57099638881796       -0.54961917973232
C            1.55003588247305       -0.58815400098500        0.42053632546309
C            2.90395369056820       -0.38229962513476        0.57193290135088
N            5.86286061026911       -0.15487487147926       -1.39494315550162
C            7.14736088676159        0.23669740271247       -1.30056268151177
C            7.85457013539546        0.62147659532891       -2.45309189510776
C            9.12802680999522        1.13233011430802       -2.33092512833435
C            9.84987999362762        1.53051279393212       -3.48006639058342
N           10.42952140659302        1.84794589902689       -4.41714950442527
H            9.51275757063299        0.96262236975888        1.06495538703933
H            4.40741623475755       -2.89794998201719        0.95300265871507
H            3.53888066153575       -4.07432274755765        2.92399892709513
H            4.04219330931856       -3.23957156225263        5.19116309094809
H            5.44626660383443       -1.22913288075943        5.47879025455686
H            6.31663898122101       -0.04130378800800        3.49262159814923
H            3.98052403935166       -1.62709316236350       -2.38205079403768
H            1.55463036300729       -2.01903196169576       -2.65073872512008
H            0.89752201671680       -3.92835277492966       -1.35695142924210
H           -0.40577545215217       -6.02199143272919       -1.35489339396851
H           -2.81391623919690       -5.98875321691539       -0.86702800823756
H           -3.97397150242965       -3.89957276766427       -0.39461682771225
H           -4.79710366075373        2.96944813086416        1.96330266280460
H           -7.14150927334741        2.93360917927717        2.65307354816765
H           -8.60571223555083        1.05110968386585        2.06459479493797
H           -7.71074107283045       -0.90637400097840        0.86177482138890
H           -4.82434384146053       -1.63409463668257       -2.45113060287124
H           -5.92019476842970       -3.52816420119844       -3.59283866386261
H           -7.31202263705245       -5.10824304527917       -2.30454656329552
H           -7.59003033066347       -4.80141077104259        0.12785284906018
H           -6.46910314487005       -2.92610206484894        1.27346624648873
H            1.38005102738959        1.01782494763002       -1.66551428276128
H            2.54608453978093        3.15040017518048       -1.83497157077028
H            1.51901777139729        5.22817879849916       -1.01959950226312
H           -0.75079022119257        5.20467610127458       -0.04785231385211
H           -4.36610390031026        3.18416670690798       -1.23499957737931
H           -5.97794921288656        5.03978006000573       -1.01254173483822
H           -5.64841023815935        6.75941601471062        0.72692483511938
H           -3.71008792140393        6.61718938445811        2.24653296903277
H           -2.11020886612528        4.74785691811043        2.03660949609030
H            0.86317970476336       -0.28064748454309        1.19369009280519
H            3.27424724329850        0.09895796562537        1.46427222073062
H            7.37984224806486        0.52873349445011       -3.41794039820377
