  98
       -161.47970817
 N         11.6198699312        1.9722965215        0.0385235189
 C         10.4925964630        1.7549538101       -0.0135984909
 C          9.1168167816        1.4651368207       -0.0859633903
 C          8.6770283598        0.1446614658        0.0119725946
 C          7.3187025982       -0.1595270562       -0.0565196981
 N          6.8644943440       -1.4071112154       -0.0096175989
 C          5.5695938095       -1.6924988460       -0.0650325311
 C          5.1824745389       -3.1020759226       -0.1272431723
 C          5.8822838523       -4.0357938641        0.6364619339
 C          5.5421999845       -5.3738132088        0.5845219781
 C          4.5093238062       -5.7998978535       -0.2344711245
 C          3.8283480125       -4.8810248271       -1.0176303517
 C          4.1618329302       -3.5416987780       -0.9703561180
 C          4.6330321241       -0.6374269213       -0.1015163580
 C          3.1944096709       -0.8603416744       -0.0008128593
 C          2.3229884970       -0.1387314307       -0.8176008703
 C          0.9619196572       -0.3415742524       -0.7397295098
 C          0.4457815268       -1.2528874760        0.1781618569
 N         -0.9366295748       -1.4913627384        0.2329925838
 C         -1.4843446866       -2.7125261490       -0.1103425898
 C         -0.8329412324       -3.9169840919       -0.3269226861
 C         -1.5902715070       -4.9942877335       -0.7432003387
 C         -2.9549968814       -4.8568543314       -0.9793913022
 C         -3.6019883103       -3.6530740566       -0.7841822682
 C         -2.8775435695       -2.5631080130       -0.3075294222
 C         -3.1748157731       -1.1821231536       -0.0368060130
 C         -4.3361990241       -0.3947699243       -0.0219276712
 C         -4.2680118720        1.0215094301        0.0550536409
 C         -5.6256617736        1.4964159661        0.0317786684
 C         -6.2408974282        2.7370887961        0.1845514021
 C         -7.6188570015        2.8132379190        0.1654029343
 C         -8.4071089826        1.6743537803        0.0286208343
 C         -7.8290793938        0.4248659576       -0.0765544652
 C         -6.4449037727        0.3474733693       -0.0792312665
 N         -5.6504678457       -0.7814166303       -0.1122655733
 C         -6.1653167272       -2.0727339782        0.1041025201
 C         -7.0839305102       -2.6173302279       -0.7869783302
 C         -7.6085688930       -3.8750367698       -0.5474054371
 C         -7.2212248340       -4.5905978300        0.5735076450
 C         -6.3078706248       -4.0458870100        1.4613477934
 C         -5.7827533017       -2.7876036885        1.2347276510
 C         -3.0081041797        1.6168035648        0.2286175839
 C         -1.8608925862        0.8267392941        0.4992817657
 C         -0.8222385812        1.7379422372        0.8933047679
 C          0.4528873618        1.5998273499        1.4369681742
 C          1.2055185203        2.7324119356        1.6723239820
 C          0.7127745500        4.0015506888        1.3806785811
 C         -0.5743157478        4.1724116461        0.9091196996
 C         -1.3474799644        3.0391387500        0.7080477538
 N         -2.6658369554        2.9466923302        0.3052782494
 C         -3.3838380140        4.0288152470       -0.2312076920
 C         -3.8752254132        3.9499650813       -1.5312409599
 C         -4.5604126618        5.0207838554       -2.0734221924
 C         -4.7486801521        6.1755358174       -1.3315178911
 C         -4.2552260645        6.2561964783       -0.0397176309
 C         -3.5746513414        5.1871321016        0.5154666955
 C         -1.9386923761       -0.5534457189        0.2607850007
 C          1.3075476630       -1.9566836627        1.0162868896
 C          2.6687974356       -1.7614870377        0.9274498397
 N          5.0666357144        0.6158712106       -0.2085991453
 C          6.3593426165        0.9153070150       -0.2100793771
 C          6.8221191909        2.2269920548       -0.3198898599
 C          8.1863763990        2.5077720897       -0.2594642911
 C          8.6335399755        3.8390132372       -0.3645357503
 N          8.9808142381        4.9293514599       -0.4612166895
 H          9.3871944647       -0.6583642557        0.1291740854
 H          6.6871707426       -3.6955794454        1.2701822109
 H          6.0869110531       -6.0880058520        1.1838934262
 H          4.2427131516       -6.8454217863       -0.2716684905
 H          3.0370545214       -5.2109199885       -1.6748577710
 H          3.6417504960       -2.8346142228       -1.5994931987
 H          2.7294517307        0.5694388969       -1.5226261079
 H          0.2899855546        0.2022905859       -1.3860093537
 H          0.2346710815       -4.0054363876       -0.1936754091
 H         -1.1126174167       -5.9474356877       -0.9116784083
 H         -3.5178227704       -5.7049255513       -1.3388655028
 H         -4.6465448252       -3.5669623219       -1.0277148763
 H         -5.6650159204        3.6321695164        0.3384257629
 H         -8.0943069230        3.7762002265        0.2747329740
 H         -9.4825406103        1.7658553278        0.0267513081
 H         -8.4367889943       -0.4650274444       -0.1348413097
 H         -7.3633482614       -2.0628483323       -1.6707473459
 H         -8.3167064048       -4.2993174133       -1.2432939696
 H         -7.6301375908       -5.5728932449        0.7540349523
 H         -6.0063418079       -4.6003551993        2.3369285287
 H         -5.0743409785       -2.3521443930        1.9233862427
 H          0.8468485386        0.6329878877        1.6988565781
 H          2.1975139705        2.6308027124        2.0852891317
 H          1.3367827017        4.8663960248        1.5466923656
 H         -0.9631378629        5.1582598301        0.7060406011
 H         -3.7206658529        3.0468351084       -2.1025798364
 H         -4.9414045104        4.9559807200       -3.0812351203
 H         -5.2784425843        7.0124507712       -1.7597696479
 H         -4.4053522107        7.1528341836        0.5425520453
 H         -3.2138722898        5.2325833712        1.5321801769
 H          0.9003566707       -2.6356428262        1.7505618347
 H          3.3314358114       -2.2943581445        1.5923234553
 H          6.1058788931        3.0244828872       -0.4390880734
