  52
        -81.76946527
 C         -4.9574882935       -0.8301957258        1.9268060895
 C         -3.6322077477       -0.4518543084        1.2661596776
 C         -2.5933414566       -0.2134812723        2.3807221970
 C         -3.7440026083        0.8022152915        0.4164055704
 C         -4.8204664043        1.6750754212        0.4414369413
 C         -4.8485012445        2.7922340429       -0.3764613798
 C         -3.8099123601        3.0377198732       -1.2567641242
 C         -2.7324834810        2.1732730855       -1.3064623104
 C         -2.6845171359        1.0776790116       -0.4536744164
 N         -1.6227887533        0.1507343573       -0.5181454888
 C         -0.3003143015        0.4975059570       -0.3614449444
 C          0.0782583413        1.8425941353       -0.1733365070
 C          1.3945710858        2.1828213126       -0.0153350006
 C          2.4094087869        1.2188305814       -0.0172745563
 C          3.8118486209        1.5969120279        0.1401259013
 O          4.1936302337        2.7517127473        0.2460228397
 C          4.7304057646        0.4435457485        0.1626285004
 C          6.1048809374        0.6383721497        0.3140177004
 C          6.9703123771       -0.4315084077        0.3403882564
 C          6.4726667080       -1.7250408072        0.2147993988
 C          5.1203885959       -1.9428345271        0.0642205105
 C          4.2400545930       -0.8603557686        0.0375371592
 O          2.9231104099       -1.1451337047       -0.1133678996
 C          2.0300301274       -0.1228258403       -0.1436001545
 C          0.6975199892       -0.4759646789       -0.3035421107
 C         -2.0825165421       -1.1832604689       -0.5399956755
 C         -1.6007543031       -2.0939526566       -1.4716747630
 C         -2.1030378686       -3.3814639776       -1.4998973402
 C         -3.1026761222       -3.7491643592       -0.6172233016
 C         -3.6159230174       -2.8262992063        0.2787289222
 C         -3.1188861511       -1.5334519280        0.3313280284
 H         -4.8325919225       -1.7252459408        2.5310468398
 H         -5.7292694940       -1.0096145067        1.1815687778
 H         -5.2844288321       -0.0351424162        2.5923167859
 H         -1.6209861079        0.0559932343        1.9780999770
 H         -2.9288139641        0.5924589699        3.0301821673
 H         -2.4776357262       -1.1166306185        2.9762873178
 H         -5.6527758335        1.4949721200        1.1021054437
 H         -5.6926048351        3.4639448920       -0.3345167756
 H         -3.8427115193        3.8928841682       -1.9146402052
 H         -1.9348436619        2.3329088986       -2.0163181084
 H         -0.6755265175        2.6113467533       -0.1268493856
 H          1.6869631206        3.2123071466        0.1238385266
 H          6.4558899880        1.6551564312        0.4086006810
 H          8.0311151211       -0.2710921140        0.4577441576
 H          7.1486452367       -2.5668179902        0.2350444527
 H          4.7171151469       -2.9384236205       -0.0350927163
 H          0.4636475401       -1.5262391476       -0.3565249008
 H         -0.8504619910       -1.7842767673       -2.1832729480
 H         -1.7233913726       -4.0901204271       -2.2203573786
 H         -3.4983342673       -4.7534880905       -0.6352677118
 H         -4.4115675743       -3.1314340988        0.9386693326
