  50
        -80.80277669
 C          6.1072148497       -1.2539045139       -1.3725739720
 C          5.0798476946       -2.1672380999       -1.6129567280
 C          3.8022250130       -1.9529371146       -1.1293859934
 C          3.5763263946       -0.8065793601       -0.3809252376
 C          4.6135765037        0.1315560215       -0.1343750173
 C          5.8867678910       -0.1055438001       -0.6332662654
 C          4.0392983475        1.1753778275        0.6602476424
 C          4.5511657265        2.3387516593        1.2186935302
 C          3.7243158458        3.1195640903        2.0038860189
 C          2.4065888071        2.7378773559        2.2572618077
 C          1.8712790503        1.5884754578        1.7042390822
 C          2.6795075327        0.8204429667        0.8771685121
 N          2.4112435843       -0.3697604164        0.2214592385
 C          1.1874287574       -0.9950635952        0.1046945886
 C          0.0002969688       -0.2792509114       -0.0142235369
 C         -1.1841023403       -0.9992303360       -0.1314493907
 N         -2.4112479560       -0.3774026167       -0.2362903212
 C         -3.5664777055       -0.8150202490        0.3841586916
 C         -3.7777599393       -1.9585622058        1.1409568896
 C         -5.0469482208       -2.1728630712        1.6464764926
 C         -6.0799555353       -1.2627641692        1.4184010290
 C         -5.8739850741       -0.1174770837        0.6702717122
 C         -4.6093575423        0.1199795373        0.1501428856
 C         -4.0488670433        1.1629206476       -0.6555869020
 C         -4.5711566816        2.3234655496       -1.2100211598
 C         -3.7561445222        3.1054361877       -2.0063205472
 C         -2.4400136624        2.7281684777       -2.2740119685
 C         -1.8944547133        1.5812325828       -1.7257738412
 C         -2.6909125225        0.8113893519       -0.8891663781
 N         -1.1621051366       -2.3761492084       -0.0588723625
 C          0.0052612746       -2.9637105752       -0.0182236983
 N          1.1702992083       -2.3719176405        0.0265814065
 H          7.0904110257       -1.4498152352       -1.7737513003
 H          5.2853592370       -3.0530465760       -2.1940469761
 H          3.0025960705       -2.6517364093       -1.3156608856
 H          6.6877987004        0.5924337614       -0.4423427616
 H          5.5792680685        2.6185830218        1.0476517285
 H          4.1043962552        4.0279486066        2.4461332102
 H          1.7933673527        3.3469565487        2.9037515769
 H          0.8610659063        1.2935049813        1.9410413108
 H         -0.0017464201        0.7974750544       -0.0144486319
 H         -2.9740422796       -2.6552307953        1.3165875510
 H         -5.2408725844       -3.0559805582        2.2354225947
 H         -7.0560636200       -1.4585912666        1.8364274430
 H         -6.6794904396        0.5780335255        0.4893595366
 H         -5.5979200896        2.6009258937       -1.0266734993
 H         -4.1448382740        4.0115218069       -2.4459248464
 H         -1.8369297554        3.3380254828       -2.9296217151
 H         -0.8860405959        1.2889323185       -1.9732924396
 H          0.0075346986       -4.0457113247       -0.0217912857
