50
 energy: -80.835990844381 gnorm: 0.000068482254 xtb: 6.7.1 (edcfbbe)
C            6.09003512548033       -1.18752343566331       -1.44310140546390
C            5.06467481391542       -2.09981571228854       -1.69688077861612
C            3.79355104494704       -1.91026332059911       -1.18550852073270
C            3.57166197921242       -0.78874966587387       -0.39786893066443
C            4.60681280800454        0.14868304469474       -0.13861211275478
C            5.87358155338670       -0.06383908197415       -0.66401491421020
C            4.03610562832260        1.16754742683590        0.69292484468186
C            4.54687479246355        2.31971224536995        1.27517748630879
C            3.72270980819875        3.07588882578753        2.08869973288668
C            2.40953650443782        2.68072828029651        2.34534544698737
C            1.87550293387364        1.54173694521466        1.76895984554337
C            2.68135509533902        0.79852139648921        0.91622957063983
N            2.41165503604591       -0.37667744552365        0.23249410198027
C            1.18784154440115       -1.00763245187225        0.11964608379919
C            0.00046013689626       -0.29356760164172       -0.00151599292329
C           -1.18402868336360       -1.01277932134926       -0.12019725999465
N           -2.41055865138119       -0.38681658821509       -0.23218086516460
C           -3.56706342881385       -0.80064546598293        0.40341129975590
C           -3.78244848731800       -1.92017764560554        1.19564646948697
C           -5.05103055340265       -2.11192505827834        1.71249038011086
C           -6.08019382336405       -1.20374955061354        1.45939153417409
C           -5.87024060746183       -0.08212861306471        0.67555436058000
C           -4.60609845743187        0.13261917786949        0.14476117993023
C           -4.04149117906889        1.15071739555701       -0.69190710709133
C           -4.55777452284287        2.29953442105679       -1.27589468496810
C           -3.73851621585344        3.05600798803577       -2.09410242555915
C           -2.42484946084874        2.66439504167506       -2.35366362188130
C           -1.88537268367334        1.52877515167514       -1.77570467170491
C           -2.68628161436243        0.78542673648049       -0.91845518603933
N           -1.16521087630121       -2.39221245171413       -0.04757834761142
C            0.00590475973619       -2.97350878031227        0.00147929787897
N            1.17459547638951       -2.38731470804492        0.04976118611586
H            7.06807022899317       -1.36359605427879       -1.86570160393712
H            5.26518077325906       -2.96534037690613       -2.31002411682464
H            2.99590814415798       -2.60959696793180       -1.38033017150030
H            6.67309609436125        0.63340923290758       -0.46470662334092
H            5.57147260207213        2.61086282130649        1.10102148222670
H            4.10240617822852        3.97561117889097        2.54913768577593
H            1.79816418583206        3.27053099433523        3.01145821037020
H            0.86755926659678        1.23509225253350        2.00316751803710
H           -0.00177430601257        0.78393749331145       -0.00318097673985
H           -2.98186735959273       -2.61631862620216        1.38987322851122
H           -5.24645633731610       -2.97588901583228        2.32946005490303
H           -7.05606645646728       -1.38138599672778        1.88631757360990
H           -6.67265689122860        0.61196755781999        0.47691987494843
H           -5.58274128048298        2.58795920178099       -1.09937973977135
H           -4.12251304871430        3.95319236892051       -2.55591799300330
H           -1.81747887021780        3.25431073778719       -3.02332457682040
H           -0.87710366122659        1.22466813581818       -2.01185894487476
H            0.00814348915833       -4.05689035715480        0.00230857941452
