50
 energy: -80.835177114853 gnorm: 0.000038377029 xtb: 6.7.1 (edcfbbe)
C            3.99762080824152       -3.53916764979393       -0.14041437799544
C            2.70805111503017       -3.43792497402161        0.38303044537727
C            2.09849604865172       -2.20826504055706        0.55307665357887
C            2.79823722057773       -1.06866236431967        0.17970987727536
C            4.13241035280213       -1.16300605597733       -0.30321522699031
C            4.72138221347248       -2.40835429228934       -0.47378308524376
C            4.59418712602946        0.18096965455275       -0.48996490981622
C            5.79737849264843        0.73222645534826       -0.90777613059821
C            5.91183841484417        2.11036468789555       -0.96861920987269
C            4.84676573795492        2.93974044948077       -0.61430769646112
C            3.63749121941448        2.41447854557010       -0.19613391726515
C            3.51743437753479        1.03326638189158       -0.12653241524934
N            2.43264704819088        0.26391893826966        0.25526433655879
C            1.19043326238021        0.76332832328255        0.60366398029638
C            0.00049760752775        0.15555844374283        0.21642858110237
C           -1.19384932297689        0.75508125264318        0.60331797590914
N           -2.43317894755544        0.25113245202608        0.25202295680018
C           -3.52468035992968        1.01864949607076       -0.11517750891116
C           -3.65564120659390        2.39983004346740       -0.16296119663090
C           -4.87027470399340        2.92255619844174       -0.56857336794464
C           -5.93037013658151        2.09094571288760       -0.93253673323748
C           -5.80509560555823        0.71300135606029       -0.89412331279849
C           -4.59640694489142        0.16437317795326       -0.48881165292393
C           -4.12448756545732       -1.17887326681610       -0.32497383634725
C           -4.70550568037865       -2.42510544119734       -0.51513854836604
C           -3.97384420770388       -3.55642912913498       -0.20162118582595
C           -2.68425101416469       -3.45483426837310        0.32169911853839
C           -2.08256486461151       -2.22408711655692        0.51090689035195
C           -2.78986651724011       -1.08288613807567        0.15682162915275
N           -1.17566885413138        1.94963435193612        1.29879170775723
C           -0.00698287702456        2.47512780890367        1.56019645329135
N            1.16537603274274        1.95892766280691        1.29682287127643
H            4.44033168856280       -4.51576682122858       -0.26638891268659
H            2.17894843039538       -4.33438166867569        0.66872854518318
H            1.11673028992165       -2.14116636347529        0.99407769605914
H            5.72923695373262       -2.48800640027890       -0.85151347486249
H            6.62610162953376        0.09562907089314       -1.17791570223984
H            6.83970845832935        2.55525986580677       -1.29610345596343
H            4.96686018755079        4.01089930641155       -0.67350435554901
H            2.81137976687466        3.05059621138487        0.08073962820958
H            0.00430497072173       -0.70244994961997       -0.43664087760059
H           -2.83336972870776        3.03786851918047        0.12078847632941
H           -4.99851023937851        3.99359850521846       -0.61024685035960
H           -6.86252527348255        2.53395608996957       -1.25026185869852
H           -6.62984135518611        0.07438554948472       -1.17160472504361
H           -5.71345072714821       -2.50497674089331       -0.89258793952824
H           -4.41014329183044       -4.53381581872823       -0.34297397771262
H           -2.14863142480961       -4.35213153326370        0.59220752467605
H           -1.10062151634801       -2.15893251653618        0.95148977110776
H           -0.01036078718770        3.42651162847918        2.07923806407961
