  50
        -80.90583221
 C          3.9607038224       -3.5350518823       -0.1284923582
 C          2.6806593327       -3.4236748128        0.4041036842
 C          2.0753746149       -2.1918960564        0.5770941541
 C          2.7725154536       -1.0582314171        0.1894806157
 C          4.0928360526       -1.1633269856       -0.3014150854
 C          4.6824282209       -2.4078698569       -0.4700663155
 C          4.5705461260        0.1795675773       -0.4925865330
 C          5.7723319961        0.6994600303       -0.9531535966
 C          5.9173937480        2.0714864774       -1.0125988910
 C          4.8814279299        2.9158408231       -0.6235372770
 C          3.6758072127        2.4186827859       -0.1627174099
 C          3.5287054195        1.0431347714       -0.0955075548
 N          2.4248146947        0.2836498725        0.2855728227
 C          1.1870312193        0.7995112054        0.6123180734
 C          0.0020799601        0.1571057670        0.2508269392
 C         -1.1883766817        0.7898605728        0.6124738935
 N         -2.4237092265        0.2704163384        0.2844953802
 C         -3.5379057894        1.0310293081       -0.0669967209
 C         -3.6999010554        2.4064194433       -0.0929472131
 C         -4.9139104688        2.9046098894       -0.5303085398
 C         -5.9446641885        2.0620590209       -0.9363012546
 C         -5.7852740566        0.6905003426       -0.9179230834
 C         -4.5747785265        0.1700061098       -0.4815830308
 C         -4.0836106196       -1.1734776855       -0.3345927406
 C         -4.6648505713       -2.4164585932       -0.5391000484
 C         -3.9318618454       -3.5483129904       -0.2398751989
 C         -2.6489831595       -3.4429417646        0.2865237074
 C         -2.0525797490       -2.2123335074        0.4958662899
 C         -2.7608076562       -1.0718403347        0.1503095213
 N         -1.1808126644        1.9654680273        1.2498430240
 C         -0.0056539628        2.4900168766        1.5185025124
 N          1.1737552183        1.9763682666        1.2464050958
 H          4.3989131028       -4.5135862482       -0.2536643602
 H          2.1490155143       -4.3162847668        0.6984729038
 H          1.1015766891       -2.1285617129        1.0346911246
 H          5.6894280675       -2.4872168712       -0.8499914364
 H          6.5717189592        0.0413220185       -1.2579880951
 H          6.8447354705        2.4980576463       -1.3645682155
 H          5.0222959470        3.9849466508       -0.6795141799
 H          2.8800408548        3.0750477578        0.1475882520
 H          0.0078828990       -0.7307131471       -0.3559163747
 H         -2.9085014739        3.0620432573        0.2294927615
 H         -5.0650394431        3.9734631889       -0.5546155166
 H         -6.8788870524        2.4893174152       -1.2687508999
 H         -6.5803365760        0.0331130348       -1.2354952313
 H         -5.6743588927       -2.4911742836       -0.9132504809
 H         -4.3629775353       -4.5259022574       -0.3938646484
 H         -2.1068996522       -4.3398839069        0.5467635719
 H         -1.0760704146       -2.1589362410        0.9481043338
 H         -0.0094583988        3.4477764451        2.0229915206
