50
 energy: -80.938562618458 gnorm: 0.000032714330 xtb: 6.7.1 (edcfbbe)
C            3.97462642885606       -3.53430710451641       -0.13663094937711
C            2.68908305105719       -3.42771207125397        0.38375805460840
C            2.07960252435361       -2.19699765266061        0.55487285863544
C            2.77720737983166       -1.06046657073458        0.17690158684904
C            4.10220060666646       -1.16102102828305       -0.30107635825142
C            4.69704082484343       -2.40391663177746       -0.46747730763450
C            4.57994745031374        0.18394337970201       -0.48464704660546
C            5.78685285016816        0.70503953078843       -0.93125576330938
C            5.93213705381000        2.07757905113588       -0.98866210915275
C            4.89065679822537        2.92094709721444       -0.61243553828917
C            3.67973938847541        2.42166926841699       -0.16564695473858
C            3.53320925637977        1.04599859549125       -0.09753804549151
N            2.42442207495855        0.28337192472360        0.27275197495207
C            1.18707170656738        0.79586004938128        0.60160980259685
C            0.00061826753545        0.15610431480881        0.23950973799108
C           -1.19020720246152        0.78717505355938        0.60366282655567
N           -2.42512097977500        0.27035184227639        0.27415427684467
C           -3.54158794964381        1.03210631031813       -0.07696030612948
C           -3.70117288924185        2.40755702112131       -0.11343125206280
C           -4.91817708160179        2.90587538919182       -0.54466588288613
C           -5.95345278154113        2.06215858786099       -0.93655498504951
C           -5.79517442512668        0.69010267946335       -0.91144456495897
C           -4.58209171216117        0.17024122312649       -0.48053723880109
C           -4.09279636616891       -1.17453541437528       -0.32882512438221
C           -4.67887202833860       -2.41740041215169       -0.52345810152518
C           -3.94811329412673       -3.54989204964351       -0.21925599701252
C           -2.66324885925261       -3.44538494400707        0.30291728676020
C           -2.06249061028624       -2.21442061508418        0.50163113150484
C           -2.76795928173216       -1.07430699082595        0.14966579108745
N           -1.18213611988502        1.96082051716044        1.24823612589063
C           -0.00583607098306        2.48235957345128        1.51731018630148
N            1.17380076274417        1.97079692018381        1.24328302326570
H            4.41650409002147       -4.51137704451095       -0.26132461972313
H            2.15505527510499       -4.32176822815187        0.66927074852320
H            1.10040271349630       -2.13696104484594        1.00178265190508
H            5.70785257336236       -2.47916560086731       -0.83759492485093
H            6.59003982737578        0.04764172380060       -1.22705433899009
H            6.86344631187211        2.50494684104441       -1.32933277574801
H            5.02897115083810        3.99056954834103       -0.66777277776181
H            2.87972033859383        3.07881310315135        0.13356838895966
H            0.00454959834800       -0.73005485811710       -0.37028374299804
H           -2.90633262228293        3.06522722104417        0.19778514743833
H           -5.06613783794211        3.97521734498757       -0.57477714936892
H           -6.88993537167109        2.48873698926357       -1.26377905229857
H           -6.59321664544297        0.03213070794303       -1.21963075580448
H           -5.68938915692346       -2.49115454856740       -0.89464933421577
H           -4.38277531572293       -4.52709376519854       -0.36627197526849
H           -2.12234808010144       -4.34156775237755        0.56808788359611
H           -1.08350974412766       -2.15918661160535        0.94919810868137
H           -0.00890829421067        3.43794822501110        2.02762469535532
