  62
        -95.25183073
 C          3.6640563218       -2.1483164394       -1.8276474633
 C          2.6351730260       -2.2147946836       -2.7526588491
 C          1.5277125151       -1.4062094511       -2.6000021601
 C          1.4136042980       -0.5359979675       -1.5169406791
 N          0.2574039760        0.2516793680       -1.4292742758
 C         -1.0294657745       -0.2359360897       -1.5697413798
 C         -1.4685336691       -1.5467831489       -1.6841834855
 C         -2.8292932643       -1.7630700149       -1.7805095080
 C         -3.7384141256       -0.7083619101       -1.7555163484
 C         -3.3077469452        0.5958535879       -1.6204416870
 C         -1.9446648099        0.8384413708       -1.5249805070
 C         -1.1635571805        2.0317410191       -1.3656955936
 C         -1.4903936684        3.3772874660       -1.2724099937
 C         -0.4705818637        4.2995249301       -1.1481189592
 C          0.8619253468        3.8938865048       -1.1457404820
 C          1.2119588839        2.5607348081       -1.2427725648
 C          0.1904255360        1.6257811530       -1.3212481442
 C          2.4447996265       -0.4686685492       -0.5725595599
 C          2.4414137415        0.4221579140        0.6061548762
 C          3.5726580802        1.2114272255        0.8164980663
 C          3.6685677591        2.0766135969        1.8874266903
 C          2.6287945650        2.1527769752        2.7994021091
 C          1.5110240754        1.3630591956        2.6256935167
 C          1.3971386761        0.5018758052        1.5351260377
 N          0.2257021331       -0.2607161885        1.4266820730
 C          0.1262194198       -1.6322529293        1.3102756133
 C          1.1243599105       -2.5917449587        1.2266006438
 C          0.7417867031       -3.9145925976        1.1129129349
 C         -0.6002529149       -4.2873499107        1.1062083779
 C         -1.5972316031       -3.3415474045        1.2381777337
 C         -1.2374795168       -2.0056597912        1.3460556780
 C         -1.9905840495       -0.7951609576        1.5090792283
 C         -3.3479410631       -0.5209795140        1.6010208688
 C         -3.7482248098        0.7924638365        1.7391424651
 C         -2.8146271136        1.8255218294        1.7686177798
 C         -1.4590844509        1.5774192856        1.6763501714
 C         -1.0503364008        0.2567505763        1.5617386108
 C          3.5668775510       -1.2758350813       -0.7626510579
 H          4.5383625867       -2.7717946057       -1.9373599311
 H          2.7015469756       -2.8850989062       -3.5962307052
 H          0.7358049815       -1.4254959379       -3.3333171516
 H         -0.7765032393       -2.3749580277       -1.6790211458
 H         -3.1953699801       -2.7752033607       -1.8711425211
 H         -4.7945624629       -0.9195616134       -1.8336533515
 H         -4.0120170943        1.4128315046       -1.5826399464
 H         -2.5229991107        3.6903983452       -1.2990491981
 H         -0.7026265614        5.3508141243       -1.0671415196
 H          1.6409042440        4.6386477643       -1.0735758411
 H          2.2483974961        2.2658145619       -1.2664779500
 H          4.3797556694        1.1597894051        0.0995362712
 H          4.5505565580        2.6861157059        2.0124836681
 H          2.6940302235        2.8158819440        3.6486694578
 H          0.7094842270        1.3902518714        3.3482564207
 H          2.1678069059       -2.3237075038        1.2571473255
 H          1.5025648148       -4.6773136125        1.0332212922
 H         -0.8579466388       -5.3318337274        1.0111283389
 H         -2.6374980423       -3.6289454447        1.2575685632
 H         -4.0711777036       -1.3210393116        1.5589098023
 H         -4.7992515753        1.0282562660        1.8160643669
 H         -3.1571333221        2.8457817278        1.8604239030
 H         -0.7477505660        2.3891758729        1.6747829432
 H          4.3642437673       -1.2330527957       -0.0342932836
