  62
        -95.14780143
 C          3.6631071643       -2.0380071825       -1.9657427591
 C          2.5542740761       -2.1798038384       -2.8000473782
 C          1.4236123355       -1.4280835207       -2.5503890102
 C          1.3619288449       -0.5508575348       -1.4727668957
 N          0.2116893676        0.2353890345       -1.3318170976
 C         -1.0826465620       -0.2309912498       -1.4505558049
 C         -1.5404877186       -1.5372747207       -1.5320793354
 C         -2.9172741585       -1.7354143524       -1.6289468564
 C         -3.7994005080       -0.6645713271       -1.6181200068
 C         -3.3491327681        0.6451123701       -1.5089399117
 C         -1.9795164523        0.8666714921       -1.4113565075
 C         -1.1799533516        2.0419400495       -1.2621220933
 C         -1.4741082211        3.4015418646       -1.1994814647
 C         -0.4292650865        4.3005503596       -1.1094259059
 C          0.8987405473        3.8713401578       -1.1117646116
 C          1.2188628452        2.5239741814       -1.1885996781
 C          0.1778783775        1.6114317735       -1.2368167320
 C          2.4716383751       -0.4161506086       -0.5977411016
 C          2.4737959391        0.4280150193        0.5869540619
 C          3.6157264256        1.1891114409        0.8808481206
 C          3.6670496527        2.0541735730        1.9480536347
 C          2.5624565383        2.1920673100        2.7886214338
 C          1.4330839090        1.4361327814        2.5456018539
 C          1.3688030473        0.5584872704        1.4685721854
 N          0.2217467441       -0.2335310665        1.3340710156
 C          0.1954291633       -1.6096737776        1.2393601848
 C          1.2417272918       -2.5161463483        1.1900115495
 C          0.9292677655       -3.8652970664        1.1146422756
 C         -0.3962790309       -4.3020448048        1.1144815372
 C         -1.4461677547       -3.4090107602        1.2055793019
 C         -1.1598380819       -2.0477696715        1.2672223914
 C         -1.9656858257       -0.8767342268        1.4175483298
 C         -3.3362755162       -0.6623522036        1.5163131350
 C         -3.7932830999        0.6450100594        1.6262043873
 C         -2.9168189395        1.7204075810        1.6373374358
 C         -1.5391949673        1.5295961804        1.5386245663
 C         -1.0746699011        0.2257396703        1.4556315002
 C          3.6146054949       -1.1730325967       -0.8983620522
 H          4.5582880912       -2.6105159846       -2.1569041180
 H          2.5848777265       -2.8523346640       -3.6426470670
 H          0.5808545963       -1.4811294884       -3.2236301757
 H         -0.8616450737       -2.3750135437       -1.5357060124
 H         -3.2977887051       -2.7424352411       -1.7019800391
 H         -4.8599329261       -0.8541599161       -1.6962169451
 H         -4.0421820885        1.4710932413       -1.4974508656
 H         -2.4987695268        3.7387692796       -1.2195188180
 H         -0.6382048231        5.3588764507       -1.0542093718
 H          1.6925388983        4.6008261327       -1.0662254929
 H          2.2479013972        2.2094153062       -1.2273225075
 H          4.4649334786        1.1163019233        0.2170012478
 H          4.5613258160        2.6296293211        2.1344355439
 H          2.5956629883        2.8647981018        3.6309383785
 H          0.5939766095        1.4861430768        3.2236193358
 H          2.2689471544       -2.1954032966        1.2269004528
 H          1.7271243964       -4.5902848234        1.0681318574
 H         -0.5992249656       -5.3615914847        1.0595973584
 H         -2.4688690901       -3.7521916713        1.2268969854
 H         -4.0250126464       -1.4918941771        1.5045189091
 H         -4.8547486193        0.8290977330        1.7043724746
 H         -3.3024599657        2.7254105218        1.7111309905
 H         -0.8646165869        2.3707748533        1.5419576496
 H          4.4673478429       -1.0972092086       -0.2393468064
