62
 energy: -95.176843520749 gnorm: 0.000087648699 xtb: 6.7.1 (edcfbbe)
C            3.66221245588964       -2.02696816909900       -1.97545339468764
C            2.55830745650361       -2.15965882081077       -2.81724285773122
C            1.42596779558523       -1.41049834755017       -2.56590166033559
C            1.35933859379284       -0.54319191709513       -1.48001090222210
N            0.20896059860958        0.24544893052557       -1.33718377489970
C           -1.08792639833930       -0.21561686088031       -1.44995155714799
C           -1.55187321349234       -1.52028451908486       -1.52803936417482
C           -2.92978821611015       -1.71302187192105       -1.62670840860143
C           -3.80675161871638       -0.63799428153757       -1.61960030009882
C           -3.35081138159007        0.67043896342287       -1.51437308706092
C           -1.97947609558544        0.88677368952667       -1.41677499486148
C           -1.17368031753345        2.06027322375484       -1.28243063241046
C           -1.45944624409947        3.42289404007435       -1.23912125780783
C           -0.40880063820304        4.31789962785578       -1.16901905677173
C            0.91680205712024        3.88198941576181       -1.17160000761994
C            1.22814635365786        2.53088304223750       -1.22858184653843
C            0.18192372811352        1.62360471483204       -1.25708348138403
C            2.46478733477505       -0.41523146415057       -0.59976169846010
C            2.46521833347306        0.42808040909054        0.58798552544607
C            3.60594921049275        1.19099154099992        0.88260611182853
C            3.65996292647956        2.04696125047389        1.95763924523404
C            2.55924050848976        2.17367874302743        2.80451790681457
C            1.43003607163661        1.41798715698722        2.55872751708867
C            1.36318564659806        0.55002918250666        1.47335551642564
N            0.21641277755788       -0.24478982870881        1.33593235102954
C            0.19609735301931       -1.62308218706234        1.25585540971721
C            1.24677281892883       -2.52499990068946        1.22185471334313
C            0.94205284591009       -3.87768468809533        1.16596616913088
C           -0.38130803131668       -4.32036862024253        1.16970396585004
C           -1.43615200456903       -3.43078225186105        1.24534436351223
C           -1.15713681104380       -2.06670575314027        1.28775926225597
C           -1.96828217583205       -0.89743669579957        1.42637499647327
C           -3.34023757496055       -0.68817772577819        1.53096464993077
C           -3.80237356927708        0.61790465223239        1.63827546605582
C           -2.93098422877995        1.69748060547988        1.64055076605690
C           -1.55255934842934        1.51184580523510        1.53505212183987
C           -1.08230973237527        0.20956910179227        1.45497419532408
C            3.60839952381020       -1.17163389237448       -0.89989975305635
H            4.55858069875296       -2.59806747905331       -2.16656922095883
H            2.59249702711959       -2.82374537115747       -3.66676101980385
H            0.58512168381989       -1.45826757329590       -3.24277328000869
H           -0.87518316231636       -2.36031661807379       -1.53166495544372
H           -3.31378849814472       -2.71872080797189       -1.69966971746332
H           -4.86830805128882       -0.82272689992316       -1.69863057472855
H           -4.03999218156552        1.49980089919269       -1.50836817463398
H           -2.48245705533726        3.76554391804793       -1.26037486779872
H           -0.61273508656076        5.37825613524141       -1.12921857934913
H            1.71605784748146        4.60665681630808       -1.14209796843040
H            2.25543099070127        2.20789320798303       -1.26757668582579
H            4.45266175525296        1.12569246779296        0.21415390781628
H            4.55393356658393        2.62326203698298        2.14432944142059
H            2.59357987489134        2.83823704077827        3.65365953115800
H            0.59212123764245        1.46126104203156        3.23953340744272
H            2.27259330373465       -2.19680901488891        1.25558771193324
H            1.74483187916476       -4.59825509526031        1.13218982334962
H           -0.58001891406092       -5.38175310991402        1.13075724472429
H           -2.45726706274553       -3.77868365418105        1.27181022006760
H           -4.02516632138178       -1.52106897329175        1.52851913723695
H           -4.86446361684061        0.79715438773734        1.72256020199010
H           -3.31982526311402        2.70119858924748        1.71517434353270
H           -0.88027074522615        2.35541627190435        1.53519213528573
H            4.45793918802647       -1.10164654997012       -0.23551745705804
