62
 energy: -95.282268909509 gnorm: 0.000046716880 xtb: 6.7.1 (edcfbbe)
C            3.62240859159832       -2.15908353971053       -1.83662024405159
C            2.59456664645199       -2.20847684598811       -2.76408063132140
C            1.49612011660500       -1.38706122457746       -2.60890251535799
C            1.39127484916589       -0.52312633433194       -1.52017220432725
N            0.24572653200766        0.28617770705354       -1.43183765540671
C           -1.04904975330970       -0.17847541732948       -1.56973397302950
C           -1.51218640488730       -1.48286651346764       -1.66387824316500
C           -2.87524238738238       -1.67608602857156       -1.77632952749314
C           -3.76411354780210       -0.60368394074106       -1.78562002645612
C           -3.31021298047805        0.69473190894665       -1.67096776157632
C           -1.94380202865878        0.91448175005222       -1.56117438369800
C           -1.13969621865123        2.09637877441888       -1.42898495461873
C           -1.43772669363115        3.45167012125201       -1.38235544606031
C           -0.39914277818645        4.35635859531858       -1.28382922969990
C            0.92478125858956        3.92314054441668       -1.25942737737632
C            1.24625331235010        2.58010316866152       -1.31018098253567
C            0.20571823654759        1.66417620671717       -1.36519764976899
C            2.42022003715233       -0.47368679813159       -0.57288309997021
C            2.42202519719152        0.41787360226428        0.60623358072613
C            3.55117058643745        1.21108700450812        0.81467017705108
C            3.64472228812854        2.07545891492396        1.88701337520340
C            2.60492565037732        2.14926742685584        2.79936993242618
C            1.49003251570722        1.35356411608388        2.62838067081666
C            1.38090187374601        0.49157732364419        1.53852030043750
N            0.21838435528562       -0.29122230163507        1.43403586228763
C            0.14779327780398       -1.66802502602195        1.36781682771569
C            1.16786402399925       -2.60742876762966        1.32760141941883
C            0.81665660713098       -3.94287778723436        1.27399600402457
C           -0.51698952908735       -4.34584220999352        1.28104208870160
C           -1.53598012715535       -3.41764741100216        1.36441192688117
C           -1.20788666675161       -2.06937551995041        1.41355952913993
C           -1.98653191358120       -0.86925877308765        1.53379006421840
C           -3.34891742504647       -0.61814077663742        1.62485590880050
C           -3.77449728520126        0.69043595210056        1.73253915065810
C           -2.86125054377940        1.74218871947296        1.73489290864772
C           -1.50159314534154        1.51772614802302        1.64104819225647
C           -1.06721970169113        0.20298218971433        1.55395360009285
C            3.53352308189508       -1.29290217804006       -0.76532792904124
H            4.49046666862561       -2.79091762921756       -1.94927527801588
H            2.65374563403226       -2.87359013812369       -3.61240206022961
H            0.70436669991011       -1.39275417112621       -3.34354369799379
H           -0.83389242086613       -2.32233034711729       -1.63756566314431
H           -3.25897514517271       -2.68274385627389       -1.85563484816828
H           -4.82326401627333       -0.79598071574776       -1.87584862327956
H           -3.99978733203366        1.52540981856890       -1.66365597031995
H           -2.46354998478891        3.78577596876401       -1.42684452550832
H           -0.61036110689011        5.41494806231215       -1.24036955855673
H            1.71954534366972        4.65309896217700       -1.20714042798154
H            2.27608949265581        2.26075318945268       -1.31637934007074
H            4.35828372449950        1.16059918234991        0.09752640551361
H            4.52548917942774        2.68700427206475        2.01220125115369
H            2.66710870263297        2.81339690252217        3.64825405219542
H            0.68809676645550        1.37822201553656        3.35146296499895
H            2.20449620218509       -2.31148129263549        1.34729317726677
H            1.59516234740501       -4.69085759830761        1.23314533454311
H           -0.75159627242853       -5.39944258459112        1.23599687338168
H           -2.56963595649948       -3.72836301279779        1.39502695706290
H           -4.05726650933481       -1.43274978174150        1.60864170167350
H           -4.83010643490972        0.90703619258403        1.80811100537973
H           -3.22286920903583        2.75743018137686        1.80838215635293
H           -0.80399823336411        2.34147402837489        1.62341832319097
H            4.33123307744092       -1.26127669600937       -0.03666690865880
