  88
       -130.39401858
 C          1.6145079907        1.1501156909        1.9686335497
 C          1.6493723487        0.8593368353        0.4654772727
 C          1.5969391073        2.1685586071       -0.3295357473
 C          0.5232062222       -0.0650720687        0.0566735417
 C         -0.8107557125        0.1465975946        0.1538057588
 C         -1.7185757936       -0.8614535427       -0.2977862097
 C         -3.1157599716       -0.7380822203       -0.2650101988
 N         -3.9380861718       -1.7961749689       -0.3291067402
 C         -5.1807165616       -1.3555173814       -0.1360326455
 C         -6.3098656430       -2.2710057102       -0.1770188317
 C         -7.5599291742       -1.8849120641       -0.6600822026
 C         -8.6017207243       -2.7920835998       -0.6935058158
 C         -8.4136196090       -4.0924221204       -0.2533119513
 C         -7.1683608128       -4.4894048903        0.2078764804
 C         -6.1224186108       -3.5886068291        0.2417780481
 C         -5.1819747151        0.0475244330        0.0386048721
 C         -6.2856767743        0.9463234475        0.2678548613
 C         -7.2912017655        0.5904661656        1.1777463214
 C         -8.3564541040        1.4337648273        1.4104510216
 C         -8.4496347859        2.6472329824        0.7431834756
 C         -7.4664827814        3.0053292158       -0.1670664383
 C         -6.3939641201        2.1707034423       -0.4043276559
 N         -3.8647528684        0.4313103384       -0.0735727596
 C         -3.3954031636        1.7474313060       -0.0752036973
 C         -2.5850052131        2.1940256773       -1.1215832030
 C         -2.1238113186        3.4948177710       -1.1274495504
 C         -2.4686735387        4.3653394934       -0.1037841167
 C         -3.2793515361        3.9248619600        0.9314906758
 C         -3.7440512140        2.6244395258        0.9518606569
 C         -1.1749081028       -2.1003241259       -0.7699212013
 C          0.1635461658       -2.3051032104       -0.8773919066
 C          1.0559310344       -1.2791881441       -0.4824227002
 C          2.4602361542       -1.2108979213       -0.4655624195
 C          3.4472437679       -2.1276734003       -0.8799005490
 C          4.7690141998       -1.8025685260       -0.7324915993
 C          5.1634727830       -0.5695842554       -0.1761339916
 N          6.5131219923       -0.2664746998       -0.0330939579
 C          6.9588103617        1.0470140647       -0.1963482984
 C          7.9942337584        1.5485579268        0.5954827083
 C          8.4267679302        2.8492375709        0.4315355381
 C          7.8349688023        3.6730091609       -0.5133998653
 C          6.8048385320        3.1813886665       -1.3001677702
 C          6.3687861367        1.8804379443       -1.1496935750
 C          7.4260904147       -1.2781510638        0.2788883101
 C          8.7029661909       -1.2807322629       -0.2859367583
 C          9.5958600209       -2.2877516951        0.0220606111
 C          9.2336100760       -3.3073705293        0.8884005747
 C          7.9666372963       -3.3100685986        1.4509950089
 C          7.0678530549       -2.3052891924        1.1545013967
 C          4.1799274925        0.3574912967        0.2338277670
 C          2.8636759661        0.0406646906        0.0896632629
 H          0.7009792838        1.6808814645        2.2262613479
 H          1.6463675087        0.2197718454        2.5315894714
 H          2.4666057898        1.7616824666        2.2568674669
 H          0.6772355094        2.7054042611       -0.1079791422
 H          2.4443283455        2.8013184405       -0.0749239304
 H          1.6268143142        1.9590045467       -1.3966901029
 H         -1.1884161356        1.0456921627        0.6120628019
 H         -7.7092752270       -0.8800741308       -1.0247983096
 H         -9.5663586159       -2.4838835188       -1.0701579313
 H         -9.2329464510       -4.7957961742       -0.2777304762
 H         -7.0148433798       -5.5056187611        0.5408324164
 H         -5.1453731414       -3.8823287005        0.5927979497
 H         -7.2134734884       -0.3479356812        1.7063355494
 H         -9.1188665934        1.1488035749        2.1206913923
 H         -9.2841036461        3.3064704188        0.9286641712
 H         -7.5395894580        3.9427336942       -0.6992285158
 H         -5.6489816440        2.4498670723       -1.1342836399
 H         -2.3233381898        1.5110619489       -1.9157576382
 H         -1.4969602006        3.8347306262       -1.9386000886
 H         -2.1072443386        5.3823177627       -0.1134540442
 H         -3.5474077822        4.5984949982        1.7317816803
 H         -4.3668846149        2.2761309181        1.7618129813
 H         -1.8838647149       -2.8583900682       -1.0623077790
 H          0.5533191869       -3.2372961530       -1.2586111745
 H          3.1602382066       -3.0696024980       -1.3213230486
 H          5.5358873440       -2.4880567391       -1.0635328143
 H          8.4464014332        0.9130613491        1.3427656406
 H          9.2258949622        3.2260569381        1.0525259592
 H          8.1740730440        4.6901401163       -0.6357582625
 H          6.3428409750        3.8141475356       -2.0434781383
 H          5.5767894922        1.4928465498       -1.7732295224
 H          8.9813393627       -0.4944206796       -0.9722342207
 H         10.5789709608       -2.2817497014       -0.4245493294
 H          9.9336326277       -4.0942107614        1.1234885179
 H          7.6788313522       -4.0967912883        2.1323151659
 H          6.0849923648       -2.2992083915        1.6020406515
 H          4.4888110883        1.2939216012        0.6748273343
