54
 energy: -90.481072815549 gnorm: 0.000056329042 xtb: 6.7.1 (edcfbbe)
C           -6.05318848089571        0.18150189727926        1.13000003983833
C           -5.01305164096743       -0.01922181248036        0.01144540471210
C           -5.71603605373763       -0.37041954181470       -1.31366704178853
C           -4.10392874423675       -1.16600860599278        0.40474022569384
C           -4.65606164427633       -2.41525022037859        0.66199112749802
C           -3.88903304867661       -3.48525349622607        1.08189357996950
C           -2.53287400395701       -3.30394997854007        1.29102152559497
C           -1.95950261169632       -2.07543106106899        1.04029504709070
C           -2.72315763552993       -1.00785063787690        0.55601064957302
N           -2.10606786323068        0.21362277419239        0.28770143747807
C           -0.70820645524324        0.30237851457889        0.38910768139126
C           -0.12690053172461        1.11032761754414        1.35773805080198
C            1.25546010049599        1.24142391905777        1.52124454234923
C            2.08479948704091        0.54580259876261        0.66641359650707
C            1.49835538190435       -0.26875332540823       -0.33486745591449
C            2.46759957063145       -0.89863625652281       -1.15097657193399
C            2.05274292292875       -1.70680314432282       -2.18366092314264
C            0.67095658793878       -1.86419055482248       -2.38549989618655
C           -0.27233758463417       -1.25612928330224       -1.58875237085363
C            0.12274757275406       -0.42872659528443       -0.51299956119989
C            3.75692934942328       -0.47963068557016       -0.63719311441238
N            4.93854843753921       -0.81338798627916       -1.07001566854847
C            5.92708304016371       -0.23415254638937       -0.35343527812008
N            7.22770508880198       -0.34236321050626       -0.50222142172546
O            7.76886643505615        0.42595399096558        0.45104048867003
N            6.86126841937735        1.03761493765339        1.22455579758235
C            5.68776466098430        0.65987296336484        0.76594839660301
N            4.45740066268940        0.99723494260832        1.20192059852408
C            3.51177599672572        0.42700690313695        0.50187567736860
C           -2.84884534930142        1.34064856129913       -0.06486107798226
C           -2.19549126799728        2.53884709380118       -0.37074101763291
C           -2.90466446356626        3.66900906999016       -0.71892350435372
C           -4.28589366576061        3.62048856246064       -0.78780891913529
C           -4.93100173900141        2.42489782960014       -0.53607236588558
C           -4.24107675049609        1.27112310635458       -0.18284432791457
H           -6.72188643522446        1.00410192531871        0.89431809141121
H           -5.55064480652819        0.40537747299356        2.06933611171395
H           -6.65329231396933       -0.71311307559906        1.26728995496761
H           -4.97955695810277       -0.49479193065250       -2.10562570567532
H           -6.27718257548737       -1.29565986523006       -1.21850308260530
H           -6.40407927540345        0.41705006621085       -1.60728352288162
H           -5.71733188286077       -2.56106516186535        0.53408660622694
H           -4.34905711746707       -4.44424070313558        1.26525174953069
H           -1.91946485763708       -4.11382989647947        1.65656922940187
H           -0.90638481004491       -1.94004200279536        1.23151542862310
H           -0.78100363848855        1.65064150271219        2.02681890756546
H            1.65719695506678        1.86398344414350        2.30488408321343
H            2.76490064127382       -2.20154493856433       -2.82509787803690
H            0.34138193791558       -2.48747167029374       -3.20288554734325
H           -1.32220277085722       -1.40896657042173       -1.78660816124902
H           -1.11818802799904        2.58554565436996       -0.34731558829871
H           -2.37450474375067        4.58247245217641       -0.94352727591327
H           -4.85388248310916        4.49895890034697       -1.05341061518699
H           -6.00568835501959        2.39177334369140       -0.62510556429305
