54
 energy: -90.448668419958 gnorm: 0.000073803686 xtb: 6.7.1 (edcfbbe)
C           -5.99887920625238        0.16432161729893        1.28382036419891
C           -5.03569780945997        0.00500067364445        0.09046518436665
C           -5.83463258267156       -0.20483589196895       -1.21137724555249
C           -4.16841833834792       -1.21166391503182        0.33251305798564
C           -4.75648789590273       -2.46293569645092        0.46404004044762
C           -4.00886460024434       -3.60186537880657        0.70099198264190
C           -2.63008059409894       -3.50403426069479        0.82036635342697
C           -2.01822255377602       -2.27696864828197        0.69782375389488
C           -2.77200694811888       -1.12178498151270        0.44481751570582
N           -2.13018372818170        0.09478637800266        0.31896579741219
C           -0.71407367271448        0.13922347556766        0.45221685114937
C           -0.14743017247850        0.50217112279303        1.65675118247093
C            1.24235796518456        0.56754819447185        1.86019373575538
C            2.06918130149881        0.25270611704938        0.80796835027201
C            1.48124899406773       -0.12124828801871       -0.42664323994958
C            2.46332198111032       -0.41678439152811       -1.40289297839010
C            2.05135160111991       -0.79463841671368       -2.65757293985020
C            0.66717891088128       -0.86846124796175       -2.91083495757185
C           -0.28442199699037       -0.58279360718886       -1.96189416936899
C            0.11021860870083       -0.19331945431223       -0.65991788581581
C            3.74419082422911       -0.21974966375263       -0.74964955998055
N            4.96213289829783       -0.37138678498350       -1.24455446759793
C            5.95789472394819       -0.11558019308924       -0.40804240484498
N            7.24842783750254       -0.16852513540240       -0.58144989316945
O            7.81499702267901        0.19801491213310        0.61257677470122
N            6.86551009715642        0.48842212639358        1.55983652694315
C            5.70780234966190        0.31189525061238        0.98637157124485
N            4.47881426084082        0.45530895881324        1.45789891451251
C            3.50117640555753        0.19193498059647        0.60183940810842
C           -2.81528685957921        1.26616761971805        0.06209895487116
C           -2.10145692892699        2.46151111189857       -0.10604611277872
C           -2.75894047964195        3.64567156584676       -0.35203432061012
C           -4.14360617239141        3.66025840673257       -0.43794920818967
C           -4.84967624952513        2.48054580425471       -0.28943364828163
C           -4.21504938467883        1.26969837988544       -0.04502790270784
H           -6.62306448352428       -0.71725945952023        1.39401381890206
H           -6.64533921813111        1.02536353987203        1.14376238011619
H           -5.43346624935260        0.30321594030533        2.20332565137710
H           -5.15374340829230       -0.31487311550435       -2.05309863962774
H           -6.44880634587221       -1.09767545800662       -1.14676570771540
H           -6.48583344215903        0.64194380878298       -1.40472940508521
H           -5.82773876519105       -2.55706522101843        0.38283623267207
H           -4.49744905109366       -4.55921461236042        0.79622841158861
H           -2.03319467549664       -4.38243506702115        1.01248138969155
H           -0.94678425975121       -2.20308160750901        0.79787090852072
H           -0.80161261021929        0.74724657242371        2.48097717041315
H            1.63641771106071        0.85602966868471        2.82182025307854
H            2.76211639745356       -1.03020790626100       -3.43451115649053
H            0.34870131576129       -1.16504535188110       -3.89908991343868
H           -1.33305007745631       -0.65655183375014       -2.20663841899037
H           -1.02449181497346        2.45095090386381       -0.04549021951528
H           -2.19268933555453        4.55586335553434       -0.47729035913977
H           -4.66811390337901        4.58438327776993       -0.62564653835803
H           -5.92491584851808        2.50986622372742       -0.36755955695942
