  144
       -190.72698101
 C         -2.9976440970       -1.4621318176        1.9250684646
 C         -3.7713305887       -0.6617194181        0.9211962196
 C         -5.1537096003       -0.6850713130        0.9291673625
 C         -5.8763290467        0.0610484794        0.0019134091
 N         -7.2745976962        0.0211883674        0.0070925053
 C         -8.0456992460       -1.1216284086        0.0558370407
 C         -7.6688155345       -2.4564844779        0.0464589290
 C         -8.6652019216       -3.4106554792        0.0682159016
 C        -10.0288069556       -3.0882334744        0.0892790922
 C        -11.0487764269       -4.2165512294        0.1187044760
 C        -10.8182509322       -5.0709192107        1.3734375323
 C        -10.8784598356       -5.0816457388       -1.1382825842
 C        -12.4917141971       -3.7054115222        0.1520175580
 C        -10.3937859314       -1.7504281704        0.0690296335
 C         -9.4126332397       -0.7698621687        0.0481851760
 C         -9.4608083315        0.6668421376       -0.0011202697
 C        -10.5058713623        1.5791464422       -0.0062177156
 C        -10.2323290347        2.9383263896       -0.0338565219
 C        -11.3272591069        3.9945171848       -0.0469832708
 C        -12.7324573366        3.3860682842       -0.0433489213
 C        -11.1889617023        4.8798063546        1.1999452299
 C        -11.1838431247        4.8521329927       -1.3125087087
 C         -8.8932086216        3.3519283684       -0.0379880981
 C         -7.8345663991        2.4670650674       -0.0312431480
 C         -8.1207523139        1.1097189717       -0.0306187280
 C         -5.1975789879        0.8392859867       -0.9319511890
 C         -3.8149492327        0.8656008690       -0.9470201104
 C         -3.0863654764        1.6919718774       -1.9636313938
 C         -3.0750743885        0.1115609546       -0.0218583465
 B         -1.5081529968        0.1182626715       -0.0448560101
 C         -0.6946413215        1.1676452326        0.7254026372
 C         -1.3612171885        2.1645429883        1.4622281242
 C         -0.6633203171        3.1191150601        2.1604567745
 C          0.7336072342        3.1101406501        2.1496591664
 C          1.4085659551        2.1463503388        1.4416637159
 C          0.7183817962        1.1569437044        0.7163900042
 B          1.5068775725        0.0932619645       -0.0603152057
 C          3.0738104936        0.0661801638       -0.0511966322
 C          3.8137938446        0.7678419341       -1.0165067840
 C          3.0860252703        1.5421843002       -2.0738230531
 C          5.1962443001        0.7402986655       -1.0008127113
 C          5.8752079607        0.0144684518       -0.0256240486
 N          7.2737995507       -0.0086784356       -0.0109356670
 C          8.1015636061        1.0908039793       -0.1049554013
 C          7.7919828980        2.4410345699       -0.1785861921
 C          8.8351866957        3.3423274658       -0.2325216807
 C         10.1812059171        2.9527603749       -0.2062731689
 C         11.2572726010        4.0256380951       -0.2792223426
 C         12.6728475578        3.4426435950       -0.2493815448
 C         11.0950249662        4.8126858749       -1.5875272390
 C         11.1066645516        4.9725147177        0.9200290025
 C         10.4781611864        1.6022224165       -0.1021807186
 C          9.4487905634        0.6738166784       -0.0471274011
 C          9.4247900855       -0.7583273141        0.0834389517
 C         10.4229501531       -1.7179939451        0.1675282602
 C         10.0817351862       -3.0585271947        0.2658861877
 C         11.1221007032       -4.1634388334        0.3723492618
 C         12.5553160972       -3.6243701482        0.3769814673
 C         10.9744362596       -5.1128365110       -0.8251974223
 C         10.9011568918       -4.9370990586        1.6800809101
 C          8.7241608889       -3.4062799164        0.2560305105
 C          7.7111670333       -2.4732197127        0.1722090382
 C          8.0641091710       -1.1333335651        0.1053577688
 C          5.1524439731       -0.6869805531        0.9356355643
 C          3.7698773172       -0.6637117588        0.9259153710
 C          2.9952624256       -1.4124840935        1.9682220646
 C          0.6933741766       -0.9524487781       -0.8358984023
 C          1.3597387672       -1.9527433473       -1.5681894600
 C          0.6618205338       -2.9044869495       -2.2703747711
 C         -0.7349676636       -2.8899525243       -2.2670852773
 C         -1.4097312893       -1.9246042735       -1.5609249429
 C         -0.7195723545       -0.9392458485       -0.8302680650
 H         -2.3912544108       -2.2113509799        1.4168727280
 H         -3.6621274698       -1.9623326438        2.6263935794
 H         -2.3179778693       -0.8153363131        2.4778199887
 H         -5.6851810922       -1.2628497008        1.6719251263
 H         -6.6299792269       -2.7470770721        0.0099148732
 H         -8.3669654387       -4.4478978639        0.0632787540
 H        -11.5518892086       -5.8730698298        1.4206052237
 H         -9.8276129878       -5.5167346274        1.3746586535
 H        -10.9175862089       -4.4589508179        2.2676687563
 H        -11.0190410399       -4.4770116908       -2.0319290524
 H         -9.8890229239       -5.5280275555       -1.1822460839
 H        -11.6141056189       -5.8833073337       -1.1440958966
 H        -12.7213144029       -3.1224200665       -0.7369018198
 H        -13.1751362230       -4.5517089734        0.1833349135
 H        -12.6705698168       -3.0966614654        1.0353715547
 H        -11.4273872923       -1.4471122212        0.0631260751
 H        -11.5162723981        1.2064803904        0.0172785751
 H        -12.9003689277        2.7939873572        0.8534009865
 H        -12.8905672228        2.7613281280       -0.9194779982
 H        -13.4727177402        4.1835340675       -0.0618351379
 H        -11.9805381289        5.6261627178        1.2192830561
 H        -10.2338103640        5.3973116698        1.2161496394
 H        -11.2632353144        4.2738064706        2.1007639871
 H        -11.9705545575        5.6029622466       -1.3476569243
 H        -11.2626381509        4.2274615390       -2.2000435488
 H        -10.2254546122        5.3630199420       -1.3400813756
 H         -8.6661455616        4.4070680360       -0.0413464430
 H         -6.8168425703        2.8261725327       -0.0139550784
 H         -5.7619966131        1.3976432799       -1.6652227735
 H         -2.4178218198        1.0622974862       -2.5487389744
 H         -3.7801690218        2.1929194883       -2.6350291084
 H         -2.4725653877        2.4413339618       -1.4654198460
 H         -2.4431369924        2.1707058362        1.4742320550
 H         -1.1935411698        3.8771526235        2.7205925667
 H          1.2820502115        3.8615856441        2.7010642838
 H          2.4905424972        2.1393524401        1.4365193547
 H          3.7808576418        2.0196839592       -2.7610926760
 H          2.4283827980        0.8813731829       -2.6365835705
 H          2.4611361331        2.3063850540       -1.6134545036
 H          5.7609495059        1.2591764934       -1.7622951081
 H          6.7683153594        2.7831737946       -0.1807041118
 H          8.5899419147        4.3916672396       -0.2925019750
 H         12.8383113016        2.7736837134       -1.0908203610
 H         13.3988034371        4.2506854388       -0.3152066384
 H         12.8549484111        2.9036821623        0.6775325491
 H         10.1273511054        5.3038101822       -1.6388675688
 H         11.1833237578        4.1437659245       -2.4412612255
 H         11.8676393826        5.5749723486       -1.6646125008
 H         11.1949725989        4.4158094555        1.8510650215
 H         11.8845458535        5.7333526920        0.8968914245
 H         10.1419286979        5.4724500177        0.9129070587
 H         11.4948393561        1.2492060704       -0.0568526445
 H         11.4509705915       -1.3968258269        0.1493974422
 H         13.2540261976       -4.4539443735        0.4653414686
 H         12.7194351660       -2.9564383341        1.2195030755
 H         12.7779087282       -3.0960157622       -0.5472312292
 H         11.1073780038       -4.5658969093       -1.7563852012
 H          9.9943279818       -5.5810020458       -0.8429080763
 H         11.7257538439       -5.8982885460       -0.7754655716
 H          9.9178310668       -5.3980754654        1.7080188380
 H         11.6477205972       -5.7220546395        1.7819018472
 H         10.9871818585       -4.2659358198        2.5322533148
 H          8.4447280593       -4.4473111256        0.3114704983
 H          6.6776437156       -2.7833860808        0.1472537915
 H          5.6832098094       -1.2265850088        1.7070224793
 H          3.6596261359       -1.9160224243        2.6669098494
 H          2.3517595458       -0.7291066875        2.5202395856
 H          2.3516506153       -2.1527544906        1.4947087938
 H          2.4416617616       -1.9650194342       -1.5725478890
 H          1.1924186473       -3.6648327585       -2.8269803761
 H         -1.2838078298       -3.6386998365       -2.8217482116
 H         -2.4916807252       -1.9138078109       -1.5611084749
