71
 energy: -105.205905986102 gnorm: 0.000026560564 xtb: 6.7.1 (edcfbbe)
C            0.22589685709067        5.88978191107959       -1.19729591538784
C           -0.53673900453107        5.20231046964627       -0.07071655493009
C           -2.01191869130593        5.59527296555060       -0.06854798810586
C           -2.79384036624101        4.91760552886052        1.07127688509257
C           -2.82063801563646        3.44359949124510        0.92538397131415
C           -2.14437730758556        2.50127428189824        1.68273193309807
C           -2.32319041534266        1.20436685128975        1.24880436121902
C           -3.19126228748617        1.12623607108875        0.09066533882826
S           -3.73461912202629        2.71216435461132       -0.38812019421014
C           -3.41323755251797       -0.13720867660829       -0.36278218345265
S           -4.37900845964103       -0.82518658490561       -1.64059232386629
C           -3.88547628955031       -2.44652719818655       -1.16746624404453
C           -4.40289209239755       -3.62029806760697       -1.90918239281452
C           -5.92886077171264       -3.76345947535086       -1.78648113442887
C           -6.36981425210324       -4.02420700342417       -0.34843319993095
C           -7.88372001626989       -4.16611535850421       -0.24434042994857
C           -3.02331208696516       -2.43718823220065       -0.08343270045810
C           -2.73324356985406       -1.17383236056833        0.38870590253431
P           -1.72655797557334       -0.43793040863383        1.68969690213063
O           -1.91160823579910       -0.91379581146650        3.07533993610937
C            0.01341702310622       -0.50799869434066        1.15804459596231
C            0.39184169075244       -0.07320170605004       -0.10784849506626
C            1.71883537069187       -0.10236353056175       -0.48023804653176
C            2.68736210406340       -0.56080270385035        0.41538445354401
N            4.03381650469270       -0.57308632921552        0.04315522377872
C            4.90842870329685       -1.63482272638857        0.19257593160913
C            4.66927946756991       -2.91940666655921        0.66018061075190
C            5.72793489747145       -3.80859574483381        0.67622351102504
C            6.99462572436872       -3.43958901121623        0.22920458501345
C            7.23129070528031       -2.17134748840586       -0.26550648646587
C            6.18320795510220       -1.26112206832105       -0.29083105728217
C            6.06672309685120        0.09792998997382       -0.74581792943815
C            6.96898164694847        1.00033616943943       -1.29309030591983
C            6.52713007724036        2.27229203855929       -1.60288050617159
C            5.21016476088683        2.65252200300355       -1.35528083219803
C            4.29424757185354        1.77123326113959       -0.81113366030211
C            4.72471751963002        0.48317325197549       -0.52497267681908
C            2.30408808968875       -0.99963457710625        1.68284674782017
C            0.97259490233147       -0.97410319770119        2.04703793391449
H            0.16949935148426        6.97132868609045       -1.09241237910886
H           -0.19328831111859        5.61701278136677       -2.16359232767614
H            1.27362511299487        5.59772697550509       -1.18189774401813
H           -0.08875229644704        5.47240772613401        0.88879126818194
H           -0.45044540378760        4.11838451208864       -0.18143192102492
H           -2.46609380312642        5.31756196929491       -1.02219363061858
H           -2.10004097684532        6.67725389213187        0.04560865300996
H           -2.33689578837693        5.17063007650525        2.03009636332849
H           -3.81750540690147        5.30293841788848        1.05966335158251
H           -1.53566943224177        2.77203347240733        2.52898726988285
H           -4.15546467878009       -3.51491064973255       -2.97028356721439
H           -3.91682668235028       -4.52052025067913       -1.52786536966388
H           -6.40156306118177       -2.84977484217808       -2.15318695510098
H           -6.25351295230453       -4.58981448835772       -2.42158652111479
H           -5.89314037871660       -4.93699327202215        0.01746809313083
H           -6.03686471067369       -3.20099699326551        0.28903661162310
H           -8.17946231275005       -4.35269946773134        0.78567519395561
H           -8.23269901157194       -4.99417102898235       -0.85793579162000
H           -8.37549865277268       -3.25657085957336       -0.58324117121303
H           -2.62351465416829       -3.34272641824008        0.34093043398250
H           -0.36142298984146        0.28067554561330       -0.79747058672611
H            2.01481249866915        0.21302342068682       -1.46939496661803
H            3.68773210216502       -3.22311699150637        0.99084848499997
H            5.56741383195338       -4.81258415637092        1.04087606095997
H            7.79729445694735       -4.16145231183642        0.26133187479031
H            8.20803312134532       -1.89147657255127       -0.63026914189398
H            7.99464951215172        0.71166183334664       -1.46635550505897
H            7.21199792298500        2.98855319668911       -2.03217356363399
H            4.89779449476468        3.65949866236968       -1.59013155232469
H            3.28219760695454        2.08434140731401       -0.60462396661609
H            3.05473827397342       -1.33644923866726        2.38196852754844
H            0.65558802527464       -1.30066228471558        3.02750758034730
