  71
       -105.15828540
 C         -0.0577222420        6.0052017585       -1.3323239408
 C         -0.7113621796        5.2896760466       -0.1569616213
 C         -2.1918776576        5.6416107189       -0.0389795997
 C         -2.8664684163        4.9068190567        1.1303944785
 C         -2.8338207626        3.4364770408        0.9487778731
 C         -2.1601015229        2.4984543016        1.7140458229
 C         -2.2900584749        1.2066454273        1.2527366306
 C         -3.1178750572        1.1292840585        0.0659829337
 S         -3.6760046318        2.7097608787       -0.4130782920
 C         -3.3183133312       -0.1325648951       -0.3997283694
 S         -4.2532298383       -0.8172755997       -1.7022216910
 C         -3.7948798798       -2.4381299122       -1.1993943290
 C         -4.3340996357       -3.6102855722       -1.9280569850
 C         -5.8612026921       -3.7160238992       -1.7861850761
 C         -6.2874736245       -3.9228833825       -0.3353404954
 C         -7.8019596501       -4.0197694835       -0.2055693974
 C         -2.9617479815       -2.4316706707       -0.0925197537
 C         -2.6658654557       -1.1693314394        0.3743674957
 P         -1.6942616591       -0.4356834397        1.7065071283
 O         -1.8925716801       -0.9189361996        3.0807437090
 C          0.0476955174       -0.4938152628        1.1788624594
 C          0.4348559075       -0.0352095406       -0.0749192826
 C          1.7613673704       -0.0810113129       -0.4473488463
 C          2.7200665509       -0.5794455973        0.4371028393
 N          4.0641049183       -0.6195618863        0.0629070881
 C          4.9119381209       -1.7039748872        0.2039767347
 C          4.6437573066       -2.9829963580        0.6701591476
 C          5.6800138300       -3.8978750271        0.6772616776
 C          6.9521279037       -3.5600150471        0.2224609251
 C          7.2173421173       -2.2974068693       -0.2706993431
 C          6.1922859691       -1.3615991571       -0.2866281707
 C          6.1077997170        0.0006696488       -0.7373305688
 C          7.0294837779        0.8800519864       -1.2885141949
 C          6.6193070805        2.1636669093       -1.5914478479
 C          5.3150312836        2.5775661984       -1.3333253542
 C          4.3800365039        1.7194795727       -0.7851804827
 C          4.7778692220        0.4196813212       -0.5068200305
 C          2.3279839189       -1.0358155731        1.6952407674
 C          0.9969769095       -0.9951612165        2.0580698426
 H         -0.1381191082        7.0836272203       -1.2149038014
 H         -0.5425740293        5.7253074011       -2.2650920064
 H          0.9958516380        5.7448322977       -1.4004751263
 H         -0.1991442201        5.5633789480        0.7687874355
 H         -0.6074534371        4.2092399607       -0.2836636811
 H         -2.7043167716        5.3744825412       -0.9658855708
 H         -2.3017308675        6.7174243801        0.1098125576
 H         -2.3635460649        5.1591756628        2.0664417188
 H         -3.9059401480        5.2436019562        1.1952310952
 H         -1.5914305476        2.7706244524        2.5866843204
 H         -4.0924632221       -3.5231932413       -2.9921173066
 H         -3.8642525865       -4.5163412589       -1.5395074282
 H         -6.3153441611       -2.8007578693       -2.1721937129
 H         -6.2142874773       -4.5507780584       -2.3947000569
 H         -5.8290712700       -4.8366404399        0.0502599139
 H         -5.9227177899       -3.0904327297        0.2704694895
 H         -8.0864716069       -4.1609114948        0.8339789306
 H         -8.1825611345       -4.8589490690       -0.7836293930
 H         -8.2736836181       -3.1101188991       -0.5704579828
 H         -2.5891841383       -3.3391453046        0.3507886391
 H         -0.3112329003        0.3476175804       -0.7564395329
 H          2.0651626256        0.2483558104       -1.4296263685
 H          3.6566213640       -3.2635278296        1.0052199074
 H          5.4965100902       -4.8980118683        1.0404872572
 H          7.7359495663       -4.3018597026        0.2478442847
 H          8.1978568607       -2.0400829467       -0.6412408262
 H          8.0455025739        0.5639727097       -1.4693330758
 H          7.3190965515        2.8627004981       -2.0238495114
 H          5.0274077548        3.5928372881       -1.5624309593
 H          3.3781766844        2.0589235295       -0.5687924491
 H          3.0735597048       -1.3976044172        2.3870927289
 H          0.6716709346       -1.3379521997        3.0292319135
