  58
       -100.49168996
 O          5.4618165789       -2.7061644422       -0.4943942735
 S          5.1290935186       -1.5534236734        0.3116501878
 O          5.5743305416       -1.5855477449        1.6804197765
 C          5.8150159092       -0.1026334548       -0.4986335620
 C          6.8359212218       -0.2491590035       -1.4231449295
 C          7.3556114131        0.8680015311       -2.0551685828
 C          6.8421281298        2.1280851558       -1.7760061546
 C          5.8070488364        2.2693505646       -0.8656644622
 C          5.3031931078        1.1524489277       -0.2225433422
 S          3.9354845617        1.3329266709        0.9306342450
 O          3.2531012977        2.5663260689        0.6066234128
 O          4.4055696264        1.2131414465        2.2843854245
 C          2.8471617664       -0.0202678408        0.4990992210
 C          1.5087971766        0.2186644444        0.4114086300
 C          0.5932314622       -0.8020127652        0.0162213217
 C         -0.7998372765       -0.5729495020       -0.0305573188
 C         -1.7008179080       -1.4567633838       -0.7139484447
 C         -3.0426465322       -1.2469657002       -0.7348921371
 C         -3.6197056510       -0.1278179703       -0.0813478464
 N         -4.9845356281        0.0736207188       -0.0935630267
 C         -5.8496488916       -1.0226851023       -0.1071945176
 C         -7.0259367710       -0.9862106489       -0.8637230957
 C         -7.8679364561       -2.0787707507       -0.8834480123
 C         -7.5568295390       -3.2185454445       -0.1551877997
 C         -6.3918055170       -3.2589444969        0.5979287697
 C         -5.5402788573       -2.1740379983        0.6252714179
 C         -5.5096093113        1.3658157214       -0.0875321454
 C         -4.8632883478        2.3960095060       -0.7800809916
 C         -5.3834951978        3.6735413107       -0.7601592543
 C         -6.5477481592        3.9475069170       -0.0563249701
 C         -7.1931389692        2.9290426594        0.6313684950
 C         -6.6835540622        1.6474761389        0.6205738620
 C         -2.7478029902        0.7700486344        0.5886344347
 C         -1.4066775379        0.5570385583        0.6140147108
 C          1.1792035347       -2.0670733756       -0.3340057729
 C          2.5234581141       -2.2863144246       -0.2460069077
 C          3.3885280042       -1.2773743053        0.1987423101
 H          7.1990217453       -1.2443362243       -1.6276255221
 H          8.1591486529        0.7569496126       -2.7674048800
 H          7.2454180683        2.9987528698       -2.2703532979
 H          5.3707609131        3.2298601696       -0.6397528669
 H          1.1769913593        1.2242204247        0.6075251641
 H         -1.3003303148       -2.2882950671       -1.2695084090
 H         -3.6873007668       -1.9087755233       -1.2958093399
 H         -7.2547509368       -0.1059166307       -1.4469373772
 H         -8.7683749867       -2.0458167354       -1.4777819065
 H         -8.2184160699       -4.0704151263       -0.1743063002
 H         -6.1502238795       -4.1390104578        1.1740657929
 H         -4.6440545860       -2.1911446972        1.2282014136
 H         -3.9712848723        2.1734887425       -1.3471767205
 H         -4.8824466707        4.4597539390       -1.3040040627
 H         -6.9499771220        4.9483870363       -0.0435802819
 H         -8.0945675676        3.1382866695        1.1869191422
 H         -7.1720027807        0.8585970079        1.1742193232
 H         -3.1759217121        1.6027928174        1.1279342582
 H         -0.7852359949        1.2307244588        1.1796985689
 H          0.5408956051       -2.8796430681       -0.6395100617
 H          2.9605988529       -3.2382860129       -0.5033241896
