  58
  -100.186470658300       0.267149921698066      !
 O          5.4808357011       -2.6249246365        0.6682314070
 S          5.1770488255       -1.2293098324        0.8910464715
 O          5.7388727290       -0.6409920666        2.0784994581
 C          5.7361296010       -0.3097877243       -0.5498450800
 C          6.6610958479       -0.8746967118       -1.4122370305
 C          7.0763298542       -0.1713021747       -2.5305881050
 C          6.5559054685        1.0893419600       -2.7940183894
 C          5.6157483424        1.6436669746       -1.9402999690
 C          5.2151151735        0.9438723730       -0.8158873007
 S          3.9490476321        1.6315205700        0.2589854207
 O          3.2124606707        2.6119002350       -0.5086546950
 O          4.5280993975        2.1038970131        1.4869835158
 C          2.8700395314        0.2314226655        0.5320389607
 C          1.5267575272        0.4021363771        0.3843852832
 C          0.6119933168       -0.6812004385        0.5476893494
 C         -0.7833761205       -0.5055713999        0.4150576427
 C         -1.7252232316       -1.5263488666        0.7803525927
 C         -3.0652708973       -1.3664470014        0.6259834813
 C         -3.6040120942       -0.1642678407        0.1003543880
 N         -4.9639735234       -0.0023186543       -0.0628707241
 C         -5.5398632554        1.2618173026        0.0789971761
 C         -5.0691954099        2.1457798794        1.0560712676
 C         -5.6295429337        3.4003815497        1.1790613356
 C         -6.6591536368        3.7950624932        0.3363251227
 C         -7.1309543678        2.9205978639       -0.6328138997
 C         -6.5811323326        1.6623023143       -0.7651154825
 C         -5.7714757497       -1.0973989082       -0.3721473429
 C         -5.3023487340       -2.1052443270       -1.2222841958
 C         -6.1004816982       -3.1931752603       -1.5093447263
 C         -7.3702577096       -3.2978079834       -0.9589867635
 C         -7.8413484120       -2.2992014644       -0.1177760358
 C         -7.0541744937       -1.2054291355        0.1767715033
 C         -2.6957090380        0.8686271096       -0.2497168741
 C         -1.3558084096        0.7056989799       -0.1020070239
 C          1.2070819573       -1.9591525009        0.8334456535
 C          2.5581843185       -2.1179523821        0.9448434056
 C          3.4239742831       -1.0234543074        0.8178075710
 H          7.0327387185       -1.8617435704       -1.1849143349
 H          7.8037650481       -0.6061367346       -3.1992002950
 H          6.8781413422        1.6365654039       -3.6668218720
 H          5.1737274045        2.6103491050       -2.1251143995
 H          1.1899084865        1.3977974497        0.1523420425
 H         -1.3667365678       -2.4350088186        1.2341309602
 H         -3.7456552675       -2.1403933563        0.9520401863
 H         -4.2820798266        1.8255709248        1.7230418583
 H         -5.2661636670        4.0723197353        1.9415396581
 H         -7.0917747884        4.7783893013        0.4346591759
 H         -7.9263222553        3.2259966381       -1.2955156530
 H         -6.9314255545        0.9877463227       -1.5330670812
 H         -4.3227001511       -2.0076636218       -1.6671295960
 H         -5.7337514670       -3.9611415553       -2.1732703472
 H         -7.9895771938       -4.1516510493       -1.1852267880
 H         -8.8256730130       -2.3787735803        0.3178663331
 H         -7.4104036291       -0.4375340022        0.8482801009
 H         -3.0861698656        1.7763604111       -0.6869026587
 H         -0.7034157391        1.4985198149       -0.4262129939
 H          0.5774823147       -2.8277723420        0.9324539945
 H          3.0007748801       -3.0836904517        1.1321172928
  58
  -100.186407687100       0.249928332385420      !
 O          5.5674262044        0.1420601474        2.5264157221
 S          5.1863595775        0.6451821955        1.2260772973
 O          5.6285185329        1.9773894223        0.9058937363
 C          5.8158857130       -0.4989625052       -0.0094271698
 C          6.8445499699       -1.3669625033        0.3174742101
 C          7.3208435380       -2.2557684038       -0.6316032165
 C          6.7563981726       -2.2885344512       -1.9003566600
 C          5.7138239491       -1.4328963118       -2.2181449846
 C          5.2533091520       -0.5335008379       -1.2726511772
 S          3.8760907750        0.5504006978       -1.6744526626
 O          3.1457184416       -0.0596639176       -2.7636181381
 O          4.3466390058        1.8892323616       -1.9070141864
 C          2.8442089802        0.4692062427       -0.2148527886
 C          1.4975975095        0.3352304884       -0.3719708851
 C          0.6248843295        0.2070556483        0.7497057475
 C         -0.7761107626        0.1155423575        0.5943455210
 C         -1.6388986767       -0.3255943164        1.6530768170
 C         -2.9879977329       -0.3877131519        1.5080569918
 C         -3.6114082968       -0.0226068050        0.2871288071
 N         -4.9831802299       -0.0740637280        0.1489927470
 C         -5.8035640844        0.1858845852        1.2489429437
 C         -6.9781486972       -0.5485372887        1.4446328748
 C         -7.7755701465       -0.2955718712        2.5415228637
 C         -7.4211135383        0.6863080166        3.4561316339
 C         -6.2576162023        1.4184554468        3.2655228410
 C         -5.4503906899        1.1746768723        2.1738148388
 C         -5.5596955830       -0.3794651554       -1.0838359859
 C         -4.9532070721       -1.3066564589       -1.9389043452
 C         -5.5243118341       -1.5950466492       -3.1611031847
 C         -6.7006752449       -0.9711259752       -3.5520212444
 C         -7.3066907885       -0.0515084017       -2.7071723094
 C         -6.7460641937        0.2467905035       -1.4828677589
 C         -2.7781994253        0.4023030109       -0.7807988925
 C         -1.4296870614        0.4695122855       -0.6337198406
 C          1.2621675128        0.1716106193        2.0377330880
 C          2.6138731943        0.3010458545        2.1754613805
 C          3.4364573067        0.4804981361        1.0550774274
 H          7.2478863955       -1.3252789695        1.3172812987
 H          8.1302709749       -2.9250331328       -0.3822097237
 H          7.1258732156       -2.9829412367       -2.6395261599
 H          5.2386876785       -1.4448389792       -3.1866824383
 H          1.1251384901        0.2826887033       -1.3810364254
 H         -1.2037440461       -0.6645360389        2.5784097748
 H         -3.6039331512       -0.7659518518        2.3116479816
 H         -7.2403921265       -1.3270858624        0.7428473796
 H         -8.6748622502       -0.8737506520        2.6901542935
 H         -8.0479273391        0.8799543972        4.3124900566
 H         -5.9826040726        2.1899960534        3.9683066439
 H         -4.5559704667        1.7573598040        2.0078985085
 H         -4.0513371987       -1.8086101895       -1.6203820697
 H         -5.0536237157       -2.3175555903       -3.8102415554
 H         -7.1427760222       -1.1998783507       -4.5090639980
 H         -8.2174116325        0.4425494744       -3.0096412414
 H         -7.2040843993        0.9793666912       -0.8340339195
 H         -3.2409638699        0.7253716140       -1.7022480558
 H         -0.8374360198        0.8496409314       -1.4490611357
 H          0.6578748501        0.0777733215        2.9248995481
 H          3.0896109319        0.2804438450        3.1433473636
  58
  -100.186230457600       0.207188884694769      !
 O          5.7743457102       -1.5504665220       -1.5886181651
 S          5.1917346588       -1.4811253322       -0.2744745023
 O          5.5265124787       -2.5604219507        0.6271480595
 C          5.6749009571        0.0607624319        0.5153478313
 C          6.5730787975        0.0446349647        1.5697064321
 C          6.9207245098        1.2307839354        2.1940713202
 C          6.3578943304        2.4300251632        1.7757046910
 C          5.4444696298        2.4409713187        0.7339539642
 C          5.1134019357        1.2558601224        0.1011740950
 S          3.8766441866        1.2535649309       -1.2020985382
 O          4.4907692821        1.0553351093       -2.4864968520
 O          3.0899151754        2.4592115427       -1.0590140813
 C          2.8404237107       -0.1303063969       -0.7438527423
 C          1.4897550219        0.0441333059       -0.7178996352
 C          0.6128680144       -0.9881049625       -0.2717453374
 C         -0.7849691920       -0.7901985570       -0.2191820204
 C         -1.6531517608       -1.6334002192        0.5518792738
 C         -2.9844096230       -1.3864195934        0.6672941933
 C         -3.5802838190       -0.2739053272        0.0192803223
 N         -4.9188549267        0.0183070942        0.1828807220
 C         -5.3435545158        1.3480382851        0.1806745543
 C         -4.5412307840        2.3452883774        0.7469943434
 C         -4.9572384100        3.6602768562        0.7277873324
 C         -6.1706727136        4.0044877918        0.1490092970
 C         -6.9713368185        3.0187938256       -0.4115770253
 C         -6.5674071628        1.6998953453       -0.3992757533
 C         -5.8480117091       -1.0059186457        0.3688235356
 C         -5.7087929431       -2.2179480551       -0.3163433876
 C         -6.6228678428       -3.2319632191       -0.1174700544
 C         -7.6827280472       -3.0599206963        0.7617730968
 C         -7.8253499590       -1.8591987144        1.4433169363
 C         -6.9193310696       -0.8366898956        1.2529832140
 C         -2.7514320023        0.5416005834       -0.7951736300
 C         -1.4225579483        0.2911513006       -0.9146518501
 C          1.2441937550       -2.2048588435        0.1596936140
 C          2.6005838303       -2.3590720222        0.1339047298
 C          3.4322984831       -1.3323873485       -0.3325455742
 H          6.9772380823       -0.9063014765        1.8800821641
 H          7.6275824077        1.2210364793        3.0098813156
 H          6.6260321539        3.3540214948        2.2649786307
 H          4.9706661730        3.3499008934        0.3972060528
 H          1.1174419794        1.0161023714       -0.9942438239
 H         -1.2308882146       -2.4557078036        1.1051277597
 H         -3.5987198087       -2.0067837352        1.3042502175
 H         -3.6087353179        2.0700501461        1.2175395795
 H         -4.3347925904        4.4208167381        1.1738851761
 H         -6.4906849812        5.0345903400        0.1350534722
 H         -7.9123402303        3.2826164223       -0.8696780406
 H         -7.1779578386        0.9346079031       -0.8564068122
 H         -4.8952592131       -2.3382423931       -1.0169045682
 H         -6.5129863193       -4.1601933034       -0.6572464822
 H         -8.3938725652       -3.8565651431        0.9148117705
 H         -8.6435377826       -1.7231045038        2.1340182263
 H         -7.0151302333        0.0906443657        1.7991792138
 H         -3.2075992010        1.3425513124       -1.3591563858
 H         -0.8368860337        0.8979965429       -1.5845920844
 H          0.6335168982       -3.0308551017        0.4857714208
 H          3.0734633853       -3.2705644740        0.4644751385
  58
  -100.185353695000       8.192835969344844E-002 !
 O          5.4985407946       -2.3690888448        1.2788345539
 S          5.1610235252       -0.9690562366        1.1551832470
 O          5.6427887193       -0.1054410160        2.2013061536
 C          5.7949834743       -0.3907209400       -0.4254724487
 C          6.7944421028       -1.1027850963       -1.0675936947
 C          7.2748661818       -0.6622980764       -2.2895341345
 C          6.7442475766        0.4793736449       -2.8762402701
 C          5.7302880735        1.1783657421       -2.2410654107
 C          5.2655396315        0.7445676092       -1.0120298933
 S          3.9211002437        1.6258990089       -0.2076491024
 O          3.2083604435        2.3611574872       -1.2292994056
 O          4.4215747843        2.4059559862        0.8916918781
 C          2.8523197169        0.3102628007        0.3650311220
 C          1.5101241530        0.4262321576        0.1651414336
 C          0.6020961940       -0.6034868544        0.5580602591
 C         -0.7947279467       -0.4633895481        0.4027174067
 C         -1.7072466209       -1.5536223172        0.6049604297
 C         -3.0499028369       -1.4141428587        0.4529490786
 C         -3.6216774676       -0.1631598622        0.1078988660
 N         -4.9872135954       -0.0167441878       -0.0312491921
 C         -5.6008897172        1.1840453459        0.3274275569
 C         -5.1374779133        1.9089613524        1.4310800666
 C         -5.7369465260        3.1030903192        1.7740874446
 C         -6.8000958315        3.5942941780        1.0296896859
 C         -7.2640082355        2.8785419575       -0.0653329303
 C         -6.6739402926        1.6829107598       -0.4191350402
 C         -5.7552938636       -1.0692480544       -0.5304145412
 C         -5.2439709365       -1.8990803520       -1.5345831802
 C         -5.9994871090       -2.9487872563       -2.0144061913
 C         -7.2681855049       -3.1905371287       -1.5066867308
 C         -7.7804928970       -2.3694108377       -0.5117709835
 C         -7.0357382324       -1.3160746480       -0.0230989863
 C         -2.7431693280        0.9337712986       -0.0884217798
 C         -1.3992516887        0.7873947965        0.0387629364
 C          1.2081522870       -1.7847693791        1.1116492643
 C          2.5576004127       -1.8914145539        1.2855900830
 C          3.4128733542       -0.8345143997        0.9455616284
 H          7.1722190474       -1.9936749180       -0.5904772679
 H          8.0614835294       -1.2098905521       -2.7861223889
 H          7.1166843250        0.8213716659       -3.8298321525
 H          5.2805766672        2.0568775794       -2.6769053746
 H          1.1721257255        1.3142536051       -0.3407855518
 H         -1.3222565224       -2.5193362303        0.8863289961
 H         -3.7076258662       -2.2513303680        0.6393216974
 H         -4.3247515774        1.5112087310        2.0210894286
 H         -5.3782505174        3.6504211999        2.6323977199
 H         -7.2648660955        4.5290554172        1.3015648228
 H         -8.0851714071        3.2607085518       -0.6523470390
 H         -7.0183363524        1.1360566998       -1.2849890692
 H         -4.2655523686       -1.6921162074       -1.9431668968
 H         -5.6000320320       -3.5777590857       -2.7953211586
 H         -7.8546268495       -4.0134137978       -1.8844626356
 H         -8.7636271810       -2.5580086552       -0.1081817691
 H         -7.4234676422       -0.6899059593        0.7674383885
 H         -3.1602757432        1.8855786645       -0.3845086455
 H         -0.7702768702        1.6438894319       -0.1348172537
 H          0.5842103256       -2.6032717973        1.4295521045
 H          3.0062720862       -2.7799976680        1.7011872609
  58
  -100.185170837300       6.751475241272289E-002 !
 O          5.5609129156       -0.1141497192        2.5336064221
 S          5.1720550270        0.5182114697        1.2932659667
 O          5.5827109925        1.8885378210        1.1276191636
 C          5.8430271321       -0.4643763835       -0.0553634116
 C          6.9106938623       -1.3143137562        0.1812997336
 C          7.4271009431       -2.0737010310       -0.8553932075
 C          6.8645801151       -1.9962083799       -2.1228483932
 C          5.7839737823       -1.1596209197       -2.3520684713
 C          5.2827956212       -0.3892436951       -1.3175849490
 S          3.8672045397        0.6791058386       -1.6099784016
 O          3.1591033354        0.1639050361       -2.7612233984
 O          4.2935309769        2.0497365417       -1.6990514026
 C          2.8375755313        0.4176865544       -0.1710283744
 C          1.4955723320        0.2651911437       -0.3476187313
 C          0.6155978968        0.0379027593        0.7543128151
 C         -0.7845342385       -0.0418532457        0.5881641996
 C         -1.6673126653       -0.4221737906        1.6559026645
 C         -3.0176602463       -0.4345029591        1.5112805998
 C         -3.6253996795       -0.0972268921        0.2752896434
 N         -4.9992142612       -0.0889176160        0.1393698061
 C         -5.7977996200        0.3054919124        1.2142533439
 C         -7.0187575915       -0.3305825238        1.4635386445
 C         -7.7951848519        0.0620071608        2.5340809939
 C         -7.3734902821        1.0868442642        3.3697405846
 C         -6.1625375786        1.7198612841        3.1273584680
 C         -5.3757654810        1.3363451515        2.0612068151
 C         -5.5905123289       -0.4608829153       -1.0672782365
 C         -5.0260130924       -1.4789189264       -1.8442363962
 C         -5.6111441137       -1.8398449846       -3.0401858251
 C         -6.7594139062       -1.1982958689       -3.4824261037
 C         -7.3218350419       -0.1863203012       -2.7167598865
 C         -6.7470019339        0.1847913811       -1.5192206310
 C         -2.7752269276        0.2399525671       -0.8094027283
 C         -1.4260561968        0.2745926672       -0.6579248042
 C          1.2524480014       -0.0899951393        2.0380981663
 C          2.6014845046        0.0470077161        2.1931578852
 C          3.4264383931        0.3331307014        1.0969754958
 H          7.3126839993       -1.3610315143        1.1814171991
 H          8.2672604674       -2.7272267951       -0.6754779154
 H          7.2655521124       -2.5893292445       -2.9305584615
 H          5.3102610719       -1.0881114959       -3.3187288081
 H          1.1348853600        0.3007023722       -1.3612088130
 H         -1.2515391267       -0.7371206200        2.5980623904
 H         -3.6497451991       -0.7511704819        2.3289663069
 H         -7.3349631677       -1.1421408218        0.8242075086
 H         -8.7321100223       -0.4390540094        2.7236922461
 H         -7.9853734910        1.3908290533        4.2045303629
 H         -5.8339704513        2.5238546153        3.7681102311
 H         -4.4436450520        1.8415699028        1.8540832701
 H         -4.1458941552       -1.9917502953       -1.4846006129
 H         -5.1744013724       -2.6331200789       -3.6274907708
 H         -7.2140790404       -1.4855086191       -4.4175854404
 H         -8.2096910742        0.3221247892       -3.0605589124
 H         -7.1700398096        0.9881910914       -0.9335879916
 H         -3.2238456590        0.5262473614       -1.7498817710
 H         -0.8242439058        0.5888299811       -1.4934036125
 H          0.6532280809       -0.2791853584        2.9128740487
 H          3.0728238943       -0.0507671736        3.1585284862
  58
  -100.184846847700       4.791851694850992E-002 !
 O          5.5686883217       -0.7217315752        2.4387508057
 S          5.1592054035        0.1796757431        1.3855664114
 O          5.5365459771        1.5595964892        1.5524300571
 C          5.8478106616       -0.4327500957       -0.1585530999
 C          6.9394981757       -1.2846503564       -0.1322036696
 C          7.4719048360       -1.7563092247       -1.3205790790
 C          6.9027250950       -1.3891084289       -2.5329644259
 C          5.7988847836       -0.5517103888       -2.5554369545
 C          5.2805940560       -0.0695074876       -1.3664560795
 S          3.8354370152        0.9994699022       -1.3968580051
 O          3.1353979436        0.7520912568       -2.6382283559
 O          4.2246449727        2.3631269629       -1.1574290146
 C          2.8213295631        0.3730950476       -0.0636374953
 C          1.4818908936        0.2360152060       -0.2722582654
 C          0.6114187861       -0.2367279158        0.7551779858
 C         -0.7901435592       -0.2729937485        0.5830189356
 C         -1.6908823924       -0.4345080769        1.6892859151
 C         -3.0389440546       -0.3739516358        1.5377902946
 C         -3.6245341141       -0.1953135519        0.2578552956
 N         -4.9944901827       -0.1013319552        0.1133902180
 C         -5.7496275663        0.5344750197        1.0997031405
 C         -7.0220735064        0.0611078706        1.4383644282
 C         -7.7527048792        0.6913843605        2.4242928043
 C         -7.2339675594        1.7953430674        3.0869471937
 C         -5.9722428946        2.2684571041        2.7549249261
 C         -5.2309515422        1.6476978958        1.7711983567
 C         -5.6203315248       -0.6221663186       -1.0185376324
 C         -5.1457351977       -1.8013062210       -1.6041665926
 C         -5.7624918558       -2.3108324641       -2.7279589195
 C         -6.8533044066       -1.6598254746       -3.2867484451
 C         -7.3259963007       -0.4884151551       -2.7113959526
 C         -6.7191284087        0.0317324674       -1.5872402547
 C         -2.7573458354       -0.0994816547       -0.8615019660
 C         -1.4085509167       -0.1195141358       -0.7041312148
 C          1.2522502212       -0.6387370430        1.9781241357
 C          2.6008111218       -0.5267243477        2.1565402962
 C          3.4163720021        0.0106275677        1.1515773945
 H          7.3463976581       -1.5614239590        0.8279302813
 H          8.3292424904       -2.4120057852       -1.3020875738
 H          7.3165816471       -1.7574022435       -3.4593333582
 H          5.3193000866       -0.2614734357       -3.4772629551
 H          1.1064760046        0.5429070117       -1.2332974513
 H         -1.2893881568       -0.5824913118        2.6778590623
 H         -3.6897974007       -0.5012277248        2.3912778280
 H         -7.4146492780       -0.8122019399        0.9376692654
 H         -8.7300912490        0.3148299693        2.6850169634
 H         -7.8097352414        2.2842506220        3.8571693088
 H         -5.5676022508        3.1327032832        3.2592822110
 H         -4.2587196606        2.0269054345        1.4921721644
 H         -4.3118741644       -2.3173392831       -1.1509815101
 H         -5.3960447590       -3.2264694836       -3.1665238952
 H         -7.3323485793       -2.0626039278       -4.1654140005
 H         -8.1676498167        0.0272321248       -3.1481631041
 H         -7.0710553029        0.9557800942       -1.1517024486
 H         -3.1889647286        0.0423603078       -1.8418991947
 H         -0.7846727224       -0.0241379825       -1.5768750834
 H          0.6618329326       -1.0775534810        2.7655244883
 H          3.0799347302       -0.8459749988        3.0687825408
  58
  -100.184823129100       4.673078263856758E-002 !
 O          5.5108150802       -2.6005211697        0.6531712821
 S          5.1350908802       -1.2266987031        0.8996125504
 O          5.5372274003       -0.6792826170        2.1694878387
 C          5.8347154147       -0.2215326514       -0.4172444044
 C          6.9055478153       -0.7026239276       -1.1521492632
 C          7.4479941647        0.0722511413       -2.1638765137
 C          6.9096044523        1.3199626118       -2.4505473824
 C          5.8256642774        1.7903435260       -1.7266328208
 C          5.2974340049        1.0197761856       -0.7058709768
 S          3.8739139373        1.6191948473        0.2135709372
 O          3.1900582153        2.5827445916       -0.6208775323
 O          4.2829731542        2.0904508278        1.5092670239
 C          2.8269713001        0.1759895691        0.3504316143
 C          1.4904893267        0.3163601511        0.1257804894
 C          0.5964930123       -0.7897767681        0.2366874534
 C         -0.8002286882       -0.6280648034        0.1012246919
 C         -1.7326811469       -1.6237012103        0.5484067570
 C         -3.0767527636       -1.4387278128        0.4794053349
 C         -3.6244352717       -0.2420098255       -0.0510268735
 N         -4.9872634794       -0.0305261721       -0.0813274455
 C         -5.4944274904        1.2610452318        0.0696915684
 C         -4.8727431152        2.1665298526        0.9371386404
 C         -5.3663060007        3.4479729135        1.0674608570
 C         -6.4797045398        3.8487861191        0.3423800996
 C         -7.1022184390        2.9532446885       -0.5163930278
 C         -6.6191443422        1.6688735603       -0.6562485572
 C         -5.8644479802       -1.1031504111       -0.2459961619
 C         -5.5314129329       -2.1645678812       -1.0949095211
 C         -6.3958049304       -3.2299761558       -1.2396325699
 C         -7.5975424725       -3.2590065057       -0.5460043570
 C         -7.9330851505       -2.2077488823        0.2960617478
 C         -7.0786507607       -1.1358446463        0.4490258373
 C         -2.7222463196        0.7400783340       -0.5385439126
 C         -1.3791401917        0.5553380478       -0.4688257870
 C          1.2053116419       -2.0617212986        0.5155417088
 C          2.5521508272       -2.1903691635        0.6962202862
 C          3.3934050640       -1.0702192370        0.6488677282
 H          7.2892738716       -1.6819464034       -0.9120034805
 H          8.2894320742       -0.2968100951       -2.7304433853
 H          7.3315551666        1.9237999146       -3.2394462880
 H          5.3700163602        2.7460036728       -1.9341458427
 H          1.1355037280        1.3071346292       -0.1010896102
 H         -1.3584855950       -2.5213993136        1.0117193544
 H         -3.7486770293       -2.1829792660        0.8826373962
 H         -4.0211093212        1.8430893023        1.5174617736
 H         -4.8844619054        4.1363678222        1.7448503542
 H         -6.8601549368        4.8528669636        0.4460624404
 H         -7.9634388309        3.2628868343       -1.0885992589
 H         -7.0872940319        0.9779781507       -1.3425464206
 H         -4.6054512129       -2.1262973136       -1.6501285270
 H         -6.1349822940       -4.0398675638       -1.9037328577
 H         -8.2693113264       -4.0951243429       -0.6615815352
 H         -8.8635438144       -2.2285088729        0.8428331987
 H         -7.3273442291       -0.3270045549        1.1208458725
 H         -3.1258304427        1.6239214559       -1.0115385543
 H         -0.7297886438        1.3015131117       -0.8951754596
 H          0.5897371977       -2.9457828472        0.5490300829
 H          3.0098502080       -3.1489489821        0.8840797070
  58
  -100.183954493700       1.863828139676749E-002 !
 O          5.4222150013       -2.4784301456        1.0708441704
 S          5.1872835093       -1.0554558747        0.9695272042
 O          6.0459829619       -0.2150565370        1.7598850135
 C          5.3166252163       -0.6036870331       -0.7676695474
 C          5.9009030792       -1.4773320481       -1.6699231587
 C          5.9427287000       -1.1496176980       -3.0147725984
 C          5.3864158782        0.0431963875       -3.4602040691
 C          4.7851551542        0.9065067351       -2.5587041015
 C          4.7611968890        0.5835180322       -1.2135940532
 S          3.8801155967        1.6337089319       -0.0534015454
 O          2.9920867032        2.4807331929       -0.8196343779
 O          4.7868366880        2.3123061621        0.8302723823
 C          2.8774636769        0.4237306088        0.7998035594
 C          1.5289286340        0.6091484590        0.8429162933
 C          0.6556945889       -0.3946465352        1.3521101037
 C         -0.7457730147       -0.2535311635        1.2444896845
 C         -1.6345643003       -1.3772666444        1.3043659016
 C         -2.9387674871       -1.2744840841        0.9390261618
 C         -3.4924501078       -0.0280793513        0.5477894908
 N         -4.7753389472        0.0495824435        0.0435184669
 C         -5.5554783473        1.1823172815        0.2814633168
 C         -5.5098901843        1.8133209769        1.5289606727
 C         -6.2670758675        2.9436807584        1.7582243853
 C         -7.0725753938        3.4640207506        0.7551956784
 C         -7.1187341889        2.8425961764       -0.4848001250
 C         -6.3692161334        1.7097912205       -0.7262337076
 C         -5.2595399145       -0.9768191756       -0.7674618443
 C         -4.3903665132       -1.6699761514       -1.6186710076
 C         -4.8688784745       -2.6893348320       -2.4147759376
 C         -6.2125837462       -3.0344726327       -2.3813590315
 C         -7.0790710433       -2.3491878066       -1.5409151472
 C         -6.6133282441       -1.3293141572       -0.7370348858
 C         -2.6733756738        1.1264993679        0.6519857817
 C         -1.3596632012        1.0161424352        0.9767597649
 C          1.2877801972       -1.5833373321        1.8539085626
 C          2.6411119143       -1.7551587058        1.7955738506
 C          3.4712438367       -0.7574397699        1.2675884463
 H          6.3052039279       -2.4039393121       -1.2932149063
 H          6.4031314903       -1.8266957940       -3.7182680127
 H          5.4130983795        0.2951739713       -4.5094252061
 H          4.3200209232        1.8285749796       -2.8710407473
 H          1.1466236204        1.5116532788        0.3970821862
 H         -1.2506442333       -2.3383063006        1.6045697042
 H         -3.5853066055       -2.1402940929        0.9675187263
 H         -4.8948352170        1.3923737519        2.3110669659
 H         -6.2342371273        3.4186677754        2.7268441116
 H         -7.6595066993        4.3504815631        0.9380555281
 H         -7.7345321274        3.2503681458       -1.2718630206
 H         -6.3834937977        1.2386035633       -1.6984105031
 H         -3.3511915920       -1.3785342640       -1.6646651762
 H         -4.1914593077       -3.2103608202       -3.0740812940
 H         -6.5824399410       -3.8307789962       -3.0080828547
 H         -8.1239826408       -2.6175052682       -1.5075032549
 H         -7.2828993304       -0.8095233011       -0.0670840290
 H         -3.0963018835        2.0908120224        0.4109328521
 H         -0.7571629819        1.9076830157        1.0293694233
 H          0.6833330120       -2.3501659778        2.3107011057
 H          3.1129337865       -2.6579893898        2.1505674395
  58
  -100.183614195800       1.300216813172905E-002 !
 O          5.3511856629       -2.5299408485        1.0524639595
 S          5.1655786413       -1.0991962644        0.9552035701
 O          6.0807101862       -0.2910469862        1.7152876171
 C          5.2533411430       -0.6553243619       -0.7866288911
 C          5.7673878665       -1.5540671839       -1.7068286777
 C          5.7732662989       -1.2305146527       -3.0533024423
 C          5.2521728701       -0.0156689494       -3.4816231635
 C          4.7199440855        0.8730178977       -2.5615893170
 C          4.7303737428        0.5527535706       -1.2157124932
 S          3.9231027495        1.6321189819       -0.0282626730
 O          3.0505260488        2.5179583536       -0.7677623866
 O          4.8762170277        2.2676245553        0.8380212466
 C          2.8973314964        0.4512864138        0.8379450231
 C          1.5529379898        0.6652348932        0.8889680186
 C          0.6629001249       -0.3229992948        1.3989912997
 C         -0.7362762953       -0.1761448764        1.2705702704
 C         -1.6228623183       -1.3015896753        1.3273488242
 C         -2.9215899899       -1.2053597821        0.9434404919
 C         -3.4750077581        0.0371524687        0.5402944953
 N         -4.7549738370        0.0949233752        0.0237573937
 C         -5.5759402358        1.1927433798        0.2695218225
 C         -5.5196390288        1.8476966951        1.5050190728
 C         -6.3289407958        2.9386904085        1.7454109277
 C         -7.2008550037        3.3956572478        0.7672143428
 C         -7.2574776594        2.7519266717       -0.4611303762
 C         -6.4538076691        1.6600177714       -0.7149122988
 C         -5.1934628459       -0.9478820939       -0.7958657731
 C         -4.2940530447       -1.5734613569       -1.6669887626
 C         -4.7169100635       -2.6136867797       -2.4677195233
 C         -6.0338561817       -3.0477891773       -2.4155229320
 C         -6.9298291030       -2.4300080390       -1.5541231623
 C         -6.5200146166       -1.3878956798       -0.7476913170
 C         -2.6599765206        1.1940841671        0.6402414660
 C         -1.3482440436        1.0889961490        0.9782956936
 C          1.2758261979       -1.5162029232        1.9151924207
 C          2.6242478499       -1.7171845951        1.8473709424
 C          3.4697649377       -0.7426535643        1.3012115438
 H          6.1454541378       -2.4965359381       -1.3424034241
 H          6.1779295294       -1.9276891567       -3.7712986417
 H          5.2517493851        0.2335417888       -4.5318447224
 H          4.2823581553        1.8130683974       -2.8597799915
 H          1.1867116970        1.5767077066        0.4475612350
 H         -1.2412493259       -2.2599455649        1.6381959557
 H         -3.5655234621       -2.0731863314        0.9672958677
 H         -4.8571406373        1.4728113360        2.2716105715
 H         -6.2867531369        3.4310189996        2.7049965040
 H         -7.8326506324        4.2483782226        0.9606743702
 H         -7.9275439694        3.1086755248       -1.2284251603
 H         -6.4798038168        1.1724710370       -1.6787341808
 H         -3.2760353197       -1.2159922200       -1.7214495113
 H         -4.0173756887       -3.0823036847       -3.1430251124
 H         -6.3601364079       -3.8619254336       -3.0435956795
 H         -7.9531597000       -2.7695898519       -1.5053607366
 H         -7.2105782599       -0.9205749316       -0.0605899036
 H         -3.0828940189        2.1546984310        0.3839294965
 H         -0.7463215942        1.9815432743        1.0235248992
 H          0.6603064059       -2.2636057428        2.3888339696
 H          3.0797444838       -2.6265669862        2.2068072235
