93
 energy: -156.225599332183 gnorm: 0.000088626880 xtb: 6.7.1 (edcfbbe)
F           -3.28616435699167       -3.43776605047811       -2.25428992460703
C           -3.17655315912876       -3.84920413893536       -0.98221219827019
F           -1.93424582481095       -3.50031130576723       -0.58364202455665
F           -3.19098054249479       -5.19054639093578       -1.01262031022952
C           -4.22886711764140       -3.26825031831177       -0.08366349468187
C           -4.67966666761403       -3.99370346202345        1.01443494239748
C           -5.61357376208535       -3.41813960470897        1.86494757127545
C           -6.07824843607566       -2.13940338449844        1.63646502947084
C           -5.62102562871015       -1.41190459379817        0.53181104511778
N           -6.04303028371644       -0.10224678525841        0.31364231333780
C           -5.18088293207780        1.00390780437760        0.13136507986867
C           -3.78688175525844        1.02588722445333        0.26446925780321
C           -2.99741975982892        0.03605806514460        0.92154705197630
C           -1.63945381809730        0.09921609155412        0.90677415653038
C           -0.93674078234491        1.15840291233936        0.27218411916114
C            0.49245056361601        1.17359794883041        0.21223401154905
C            1.24271871933877       -0.02217185071395        0.29211599925149
C            2.60959774303593       -0.01594780418899        0.21784466478987
C            3.33225854051895        1.18318371246268        0.09156418227139
C            4.78313816941176        1.18624176397194        0.03631893485540
C            5.48650699635234        0.12254816053401       -0.54609609419288
C            6.86119551423358        0.11202311741674       -0.59079466291828
C            7.59682378638473        1.16420969622945       -0.03693317181494
C            9.04301326430638        1.21092345400224       -0.05576877402824
N            9.71482886706127        2.33343142705033       -0.10999802802864
C           11.03280077950875        1.98998446599887       -0.16786202040019
C           12.17048597672633        2.78917779026769       -0.23500482037776
C           13.39478973121519        2.15785275601458       -0.26317684929516
C           13.50378979774748        0.76555607605901       -0.21689081957103
C           12.38968063697065       -0.04749369436151       -0.15245697880804
C           11.15410970776682        0.57878568784855       -0.14393358667387
N            9.86613426328754        0.09873695109927       -0.07101949021052
C            9.51517710442644       -1.24812549059810        0.11429836361058
C            8.71340444960183       -1.61870079600676        1.18994284336286
C            8.38219549994291       -2.94788649429860        1.37168599490170
C            8.85566382659687       -3.91230934364155        0.49657825146575
C            9.66089849645839       -3.54371287298833       -0.56784022019234
C            9.99146579924634       -2.21499346360710       -0.76446217399614
C            6.90272450576891        2.24461864927914        0.51936812642688
C            5.52923921518497        2.25488156319014        0.55501436664491
C            2.59325462310678        2.37679858989705        0.02212906320102
C            1.22473392924943        2.37314556728884        0.06296129459133
C           -1.73011439124916        2.20611162522100       -0.27429168558877
C           -3.08625499698723        2.14829371177964       -0.27551925152897
N           -5.89226429424111        2.11210299798079       -0.13827336461875
C           -7.17161551674721        1.77133293465717       -0.08342427667683
C           -8.30385383832333        2.62785666364224       -0.21802780414579
C           -8.14044720694353        4.00385726898218       -0.39358068623602
C           -9.23877603519903        4.82984917252452       -0.47112635177220
C          -10.51081117251372        4.28000926408442       -0.36227352334220
C          -10.68189086093702        2.92074780555861       -0.19730062409483
C           -9.58919292965286        2.04732639341736       -0.13214812628882
C           -9.73436430347985        0.60414391877623       -0.01354851714672
C          -10.98890324560772       -0.00658578457928       -0.05846729193309
C          -11.14345911205285       -1.37627877501508       -0.00705538343733
C          -10.02268768955891       -2.20022880138557        0.06464437240936
C           -8.77120338880589       -1.64472408208234        0.12220972425268
C           -8.58769512192762       -0.24511112260813        0.11385852047838
C           -7.32482385131653        0.37737038901141        0.16973023024815
C           -4.69120362162694       -1.98922574937383       -0.33676644588963
H           -4.30593533926877       -4.98822302435184        1.19699349771925
H           -5.96654419639706       -3.97080730050974        2.72163753118568
H           -6.78695698341045       -1.68284831653333        2.31134705097134
H           -3.47950158598982       -0.74047996914381        1.49365641705451
H           -1.08018712648939       -0.65250269023018        1.44246775464704
H            0.72650277412499       -0.96662031295520        0.37256041105786
H            3.14589310272692       -0.95102203253637        0.28673756407405
H            4.94035225043095       -0.68772839265191       -1.00539489272186
H            7.36755628398278       -0.70464948657829       -1.08360117156347
H           12.08112561802193        3.86317004051967       -0.25853338282815
H           14.29750341501564        2.74853041086830       -0.31548557070795
H           14.48521606475805        0.31503667853966       -0.23030546852326
H           12.47941932218882       -1.12266548257600       -0.10441445195369
H            8.35337359727839       -0.86200680778499        1.87117188480478
H            7.75716505784767       -3.23260165344418        2.20467417723972
H            8.59733509849905       -4.94988770700099        0.64447988850289
H           10.03008839082010       -4.29239824891364       -1.25283371356845
H           10.60418906958153       -1.91797026350423       -1.60275998116074
H            7.47505474867280        3.06331210037200        0.92661697532810
H            5.01818221165939        3.08334832250571        1.02191523584327
H            3.11542692650925        3.31463994328227       -0.09721935247917
H            0.69847616818995        3.31414888855256        0.01606429415906
H           -1.24123226146525        3.04378316508457       -0.74695594309951
H           -3.67968585211328        2.92885906091698       -0.72387212321241
H           -7.13465993962122        4.38861932674867       -0.45627018967147
H           -9.11695179483795        5.89386031365402       -0.60668325424524
H          -11.37857048407461        4.92193306125302       -0.40797150996216
H          -11.68861533373782        2.54370449247518       -0.11350345185572
H          -11.87646990921612        0.59812055602977       -0.15122115703221
H          -12.13177551514935       -1.80887856988921       -0.04359844384534
H          -10.13799637026318       -3.27379871422386        0.06737822587941
H           -7.90912161825351       -2.29074076860123        0.14499919984906
H           -4.33673682179542       -1.43599512930028       -1.19274683342786
