101
 energy: -158.874897985205 gnorm: 0.000061398953 xtb: 6.7.1 (edcfbbe)
C            5.50816793941324       -1.58371077374711       -1.67501126852294
C            6.34488902566862       -0.78650035879232       -0.72099707551256
C            7.69723418296497       -1.05218551719352       -0.57849180000754
C            8.48324386383651       -0.32199146577051        0.30688025584755
N            9.84808589081072       -0.61399546298705        0.44006293807064
C           10.87971769840238        0.29995061557967        0.36961568758933
C           10.83778257339761        1.66149464129577        0.10479568157516
C           12.03608356238229        2.34807206490504        0.06507630340739
C           13.25240095451692        1.70174305790172        0.27441344994009
C           13.30230239291307        0.34313168688319        0.51481646713789
C           12.11113316553336       -0.36891527133127        0.55930036833708
C           11.79509503885326       -1.75546533888207        0.75915311238878
C           12.56391997884909       -2.88456827908112        1.00809664031657
C           11.92438734212042       -4.09646009802715        1.17649881054951
C           10.53564779341784       -4.18846978021651        1.11365346868032
C            9.74920336242218       -3.07954429409629        0.86734299576117
C           10.38760161369200       -1.86261968943471        0.67437226123651
C            7.90708429470821        0.69774474319390        1.05654781847485
C            6.56264820665915        0.97633579284079        0.90738548640950
C            5.77311349630382        0.24360264034663        0.03050923759642
C            4.33228085438458        0.55973067829858       -0.09758821303817
C            3.39223075124838       -0.22803999310943        0.55478401696282
C            2.04313501182448        0.05142159383150        0.46370665151105
C            1.61616060526563        1.13121499852272       -0.30301131084626
N            0.25237726599175        1.42632976724666       -0.41235037454656
C           -0.32280983807525        2.66782003510980       -0.23199537972282
C            0.26205603854253        3.86752692323750        0.14861752951626
C           -0.55902046023975        4.97062783981757        0.28941798078220
C           -1.93127072387450        4.88864457120433        0.06828011435382
C           -2.52301725220046        3.69100828032769       -0.28693747444003
C           -1.71934702479304        2.57083350648829       -0.43599621885295
C           -1.99020159824480        1.19585052280326       -0.76093075080173
C           -3.15006744212203        0.51784956695145       -1.09019719472609
C           -3.07466380543111       -0.85177859172155       -1.35712570572968
C           -4.25688613783749       -1.63949836015976       -1.72306164063594
O           -4.10835793220856       -2.59610114355131       -2.54423500097311
C           -5.54576025925223       -1.33564744655512       -1.17438411077666
C           -6.68483419053572       -1.92180001349930       -1.78382237172025
C           -7.94417334948559       -1.68525606214058       -1.30723636665269
C           -8.12812667294934       -0.87417124465837       -0.18004189552530
N           -9.43164400853264       -0.61469760176808        0.31465218994979
C          -10.18220516001085       -1.63017455906200        0.88216844443087
C           -9.68495860490734       -2.92481988545737        1.02665865161722
C          -10.46448324056088       -3.91727227162219        1.59045264454983
C          -11.74947678591126       -3.63979925063949        2.02748280250408
C          -12.25315478036471       -2.35467886989448        1.91272606961576
C          -11.47921222919276       -1.35357217840599        1.35066580064853
O          -12.02347652569451       -0.10145888336491        1.28440863232540
C          -11.26597741006196        0.89295256644297        0.73214767572517
C          -11.82622704594009        2.15758163151635        0.66650988492254
C          -11.11760767768013        3.20239584429766        0.09689295552246
C           -9.85193957543620        2.97543540968936       -0.41843494893750
C           -9.28412337193065        1.71678425797389       -0.35616094859261
C           -9.97293058237537        0.65681194166013        0.23203426664085
C           -7.01335397077504       -0.33738849382226        0.47312709986654
C           -5.74922650805724       -0.56935472649166       -0.00466505161459
C           -1.81649426892740       -1.48563170421065       -1.39150842248819
C           -0.65508165088300       -0.81947185188137       -1.07707711939005
C           -0.74508903933420        0.52485025905163       -0.73097886879520
C            2.55507713656102        1.91617952670105       -0.96599744929629
C            3.91008102849046        1.64745520380082       -0.86709116512773
C            4.91049319955072        2.50204879964412       -1.58484817100930
H            4.84486942273697       -2.25246609250699       -1.12696915428694
H            4.88344847205104       -0.92886348391647       -2.28014683286874
H            6.13444610620770       -2.18300765338200       -2.33100493311840
H            8.15732216505928       -1.82828846301613       -1.17292237144437
H            9.90134671304868        2.16772688747027       -0.07558984031826
H           12.02999249582357        3.40926250953382       -0.13632388233232
H           14.16715448082056        2.27450856879349        0.23811379942956
H           14.24586525900071       -0.16058515322692        0.66152270378776
H           13.63907682245858       -2.81030186026175        1.07214305742282
H           12.50386165434324       -4.98715525301714        1.36886925190457
H           10.06281777897687       -5.14779847091576        1.26458104477946
H            8.67283351577149       -3.15770003689036        0.83817180473622
H            8.50930096519657        1.25437405854499        1.75838758422031
H            6.10893714737827        1.76418043994902        1.49137272900948
H            3.72904996002346       -1.06139008587783        1.15438642293909
H            1.32031527629158       -0.54983272955594        0.99359397657003
H            1.32206572750807        3.93799320127139        0.34040138020117
H           -0.12641819966921        5.91627568248716        0.58138572089140
H           -2.53917522650905        5.77325404320272        0.18700812776713
H           -3.58945433351676        3.62288889062282       -0.44118297403398
H           -4.08542930637792        1.04914180189193       -1.17235246374008
H           -6.52330818683229       -2.54254745373979       -2.65175567029722
H           -8.80903622284510       -2.10814441943732       -1.79857066934124
H           -8.68144505395008       -3.14125024609440        0.69731474202718
H          -10.06134658667812       -4.91288724642130        1.69002826218361
H          -12.35778969615203       -4.41565895053396        2.46429723427436
H          -13.24374421757010       -2.10419448334222        2.25676379012079
H          -12.81877743734083        2.29920201932516        1.06288467870298
H          -11.55875299257772        4.18525554684509        0.05011462056773
H           -9.30088092713249        3.78201826884575       -0.87625828715742
H           -8.30362089514883        1.53967129149929       -0.76796745196013
H           -7.16088676139941        0.24561646245258        1.37188175945970
H           -4.90001885943266       -0.19324354423523        0.54487406908578
H           -1.78703559122691       -2.52937430663833       -1.66381309706623
H            0.29737496757100       -1.32678348590381       -1.10896085266606
H            2.21418982346558        2.73588415536598       -1.58170045580110
H            5.46321617729665        3.11493651894033       -0.87317175513231
H            4.41722002668778        3.16043234872571       -2.29544887874102
H            5.63402134779479        1.88498423912465       -2.11508074342114
