  101
       -158.95493186
 C          5.5228466930       -1.8145109867       -1.4923320503
 C          6.3272359224       -0.8840233788       -0.6358414458
 C          7.6899536858       -1.0767854089       -0.4753904870
 C          8.4486535806       -0.2206261034        0.3159439570
 N          9.8258014341       -0.4346185067        0.4630028341
 C         10.8127477220        0.5114385011        0.2715738990
 C         10.7031503516        1.8315164404       -0.1412387255
 C         11.8672924282        2.5621901904       -0.2817177451
 C         13.1155274658        1.9981780674       -0.0275637986
 C         13.2324128602        0.6787264391        0.3608626903
 C         12.0765132129       -0.0765398225        0.5086425410
 C         11.8287650691       -1.4450970387        0.8660354910
 C         12.6535299194       -2.5042040702        1.2218892258
 C         12.0743325518       -3.7174602965        1.5349626358
 C         10.6905973266       -3.8783057219        1.5103333600
 C          9.8493160430       -2.8399447834        1.1594813574
 C         10.4269063770       -1.6244612320        0.8214836197
 C          7.8327947862        0.8504967613        0.9543987213
 C          6.4775421014        1.0553325247        0.7867456206
 C          5.7163530461        0.1991532557        0.0012421846
 C          4.2639742772        0.4446742972       -0.1495226012
 C          3.3571298667       -0.3239246453        0.5689100369
 C          1.9975871697       -0.1035954181        0.4642413891
 C          1.5302648138        0.8944483984       -0.3827812482
 N          0.1516309067        1.1345058732       -0.5026850083
 C         -0.4655609254        2.3637732893       -0.3656061753
 C          0.0829648876        3.5973585859       -0.0467372289
 C         -0.7744338982        4.6765376861        0.0520313523
 C         -2.1458148481        4.5383943202       -0.1509898048
 C         -2.6999365718        3.3090392628       -0.4467347451
 C         -1.8576598293        2.2104125511       -0.5535275688
 C         -2.0802374569        0.8160843040       -0.8183779580
 C         -3.2160829822        0.0724248559       -1.0863146110
 C         -3.0819982469       -1.2922006243       -1.3229374110
 C         -4.2491746560       -2.1411286679       -1.6416809114
 O         -4.1550076083       -3.1515300797       -2.3131030299
 C         -5.5608317651       -1.6940111431       -1.1007137127
 C         -6.7069893022       -1.8706946116       -1.8723917422
 C         -7.9394502648       -1.4640936627       -1.4039255730
 C         -8.0498183760       -0.9010030544       -0.1345758096
 N         -9.3025843312       -0.4766663258        0.3517698873
 C        -10.3446554431       -1.3899738095        0.5354767994
 C        -10.1947795264       -2.7485857427        0.2880251843
 C        -11.2502740986       -3.6265989295        0.4824346664
 C        -12.4680452923       -3.1647322270        0.9382863886
 C        -12.6238035227       -1.8160586540        1.2221816289
 C        -11.5742221310       -0.9369776781        1.0319283747
 O        -11.7955453729        0.3757778827        1.3685996882
 C        -10.7613820421        1.2590238413        1.1864067927
 C        -11.0011720406        2.5798503555        1.5165058333
 C        -10.0167116002        3.5390835960        1.3298110374
 C         -8.8008201792        3.1685535900        0.7930716842
 C         -8.5545445264        1.8445436212        0.4625986733
 C         -9.5173514592        0.8655879978        0.6749274045
 C         -6.9118335461       -0.7594006736        0.6568090626
 C         -5.6776110887       -1.1446200812        0.1748512362
 C         -1.8094090394       -1.8856820080       -1.3241298848
 C         -0.6696271802       -1.1655221574       -1.0467689475
 C         -0.8088173867        0.1913132908       -0.7749940920
 C          2.4333901674        1.6586491351       -1.1127140662
 C          3.7988202644        1.4499050045       -1.0016465801
 C          4.7610777083        2.2847827864       -1.7905679600
 H          4.8948254711       -2.4525582310       -0.8709931143
 H          4.8656395557       -1.2560131848       -2.1567059968
 H          6.1732076598       -2.4499129877       -2.0881438264
 H          8.1796550701       -1.8946577551       -0.9836453015
 H          9.7414686969        2.2723023882       -0.3571894980
 H         11.8084215252        3.5928220274       -0.5995768553
 H         14.0017958139        2.6035516532       -0.1465756592
 H         14.2004921579        0.2370949463        0.5427035902
 H         13.7248245688       -2.3749019344        1.2556046548
 H         12.6977541081       -4.5545176881        1.8119643266
 H         10.2657213355       -4.8354884086        1.7749218831
 H          8.7773715342       -2.9692267480        1.1606162977
 H          8.4138796681        1.5058774501        1.5850512317
 H          5.9934478166        1.8831785463        1.2843749267
 H          3.7272865871       -1.0932172479        1.2309258420
 H          1.2992973117       -0.6888639373        1.0429988128
 H          1.1419106009        3.7104907460        0.1293008606
 H         -0.3726400206        5.6488559292        0.2957056376
 H         -2.7813919632        5.4070901667       -0.0665866006
 H         -3.7642114352        3.1982432958       -0.5899368019
 H         -4.1809581539        0.5534036797       -1.1414581949
 H         -6.6096372761       -2.3130017870       -2.8525124810
 H         -8.8227065738       -1.5745921878       -2.0154235749
 H         -9.2436201807       -3.1274554130       -0.0511948381
 H        -11.1061907988       -4.6758715850        0.2759514911
 H        -13.2936726828       -3.8426267424        1.0864933074
 H        -13.5548347056       -1.4246482839        1.5999354929
 H        -11.9692975594        2.8381343078        1.9147846920
 H        -10.2120399047        4.5665139310        1.5935159986
 H         -8.0316081680        3.9060620920        0.6223090329
 H         -7.6055872018        1.5720493330        0.0280127448
 H         -7.0061665979       -0.3466772177        1.6504987171
 H         -4.8024700062       -1.0443695703        0.7997953362
 H         -1.7484181165       -2.9402572894       -1.5469741955
 H          0.3016159267       -1.6362565219       -1.0550788481
 H          2.0587324047        2.4166002399       -1.7854139899
 H          5.2508457504        3.0102123656       -1.1413900657
 H          4.2458553656        2.8254722540       -2.5804708975
 H          5.5384658950        1.6638737203       -2.2319298100
