101
 energy: -158.874903527495 gnorm: 0.000081541507 xtb: 6.7.1 (edcfbbe)
C            5.51869839787604       -1.34667981012574       -1.84960690694529
C            6.34837966338725       -0.66656647886825       -0.80331510431861
C            7.70062577517721       -0.94366599671015       -0.68505812117609
C            8.47870651768544       -0.32220617502881        0.28628814049024
N            9.84397189024219       -0.62332558887645        0.39093326174602
C           10.87200192203886        0.29635105918913        0.43583628614267
C           10.82492287780755        1.68006546641143        0.34200109172761
C           12.02046431526445        2.37089109880192        0.38996715874638
C           13.23913337045337        1.70827401931643        0.51935156499604
C           13.29421962399600        0.33053368266388        0.58915698442618
C           12.10587008895891       -0.38613280892321        0.54305782816746
C           11.79525283806964       -1.78799822847107        0.56869738206551
C           12.56843087318554       -2.93632166052904        0.67608156832736
C           11.93364590115952       -4.16221617591601        0.69177176112845
C           10.54529385568664       -4.25107300274625        0.61697251553019
C            9.75459294157588       -3.12319640152055        0.50954599512234
C           10.38829138182428       -1.88927929013323        0.46939618935941
C            7.89447251974283        0.59843226721040        1.14927505376532
C            6.55012317878535        0.88994920656099        1.02530490497962
C            5.76901231974319        0.26574585308746        0.06153598529247
C            4.32824694449124        0.59185479840632       -0.03942747859450
C            3.38722599938000       -0.25797020318116        0.52787976620776
C            2.03807011854262        0.02722636570908        0.45870812142210
C            1.61238880007095        1.17637513114591       -0.20036969271939
N            0.24825234614975        1.47694514948057       -0.28717668090404
C           -0.33308448275033        2.69227521657189        0.01205409454111
C            0.24550625185531        3.85176664079071        0.50906940744359
C           -0.58093860048195        4.93218634120353        0.75495986014832
C           -1.95239376136634        4.86592590687096        0.52385138596438
C           -2.53793754039916        3.70594122432309        0.05238499732324
C           -1.72885031737710        2.60916590768239       -0.20335214845610
C           -1.99270231435281        1.27086841006515       -0.66054320382837
C           -3.14883258336665        0.62149355129131       -1.05454243949079
C           -3.06592773819813       -0.71585502850610       -1.45124954027108
C           -4.24454868673462       -1.47222030712109       -1.88882493208080
O           -4.09248556103336       -2.34245416774874       -2.80037197409872
C           -5.53242603963844       -1.23327762231175       -1.30724995630895
C           -6.67045650809725       -1.76831632365838       -1.96392172050036
C           -7.92868043106181       -1.58977713306824       -1.45990099494674
C           -8.11212622669156       -0.89203002661078       -0.25922256557831
N           -9.41435834684389       -0.69195859452799        0.26560368167593
C          -10.15146990493012       -1.76217930110823        0.74280253216007
C           -9.64334833897665       -3.06052093712537        0.76049163227143
C          -10.40936180738140       -4.10755101163403        1.23743633794958
C          -11.69120570341394       -3.88249184350580        1.71221753289354
C          -12.20560646625859       -2.59653401244622        1.72263281411994
C          -11.44542279246271       -1.54116564484122        1.24784202078514
O          -11.99989907699497       -0.29301229657510        1.30314681240047
C          -11.25622388797710        0.75461101849936        0.83724998825059
C          -11.82724199359660        2.01488157706988        0.89304333565888
C          -11.13250241448744        3.11382504292348        0.41562620661929
C           -9.86989973737990        2.94649915431677       -0.12921317582410
C           -9.29146462481415        1.69253851678339       -0.18803907415300
C           -9.96634129036772        0.57691788653585        0.30582138291964
C           -6.99781254803085       -0.41001069812877        0.43609626439450
C           -5.73487906537774       -0.58396451919215       -0.06856456995015
C           -1.80453596751297       -1.33666439877357       -1.54668877753056
C           -0.64682038351958       -0.69772597913684       -1.16867163954655
C           -0.74433299679033        0.60615280100785       -0.69384960907592
C            2.55250827754405        2.02501881867434       -0.77758955021640
C            3.90760750393897        1.75020002899690       -0.69865077158288
C            4.91043903484368        2.67483974824107       -1.31965516527071
H            6.14816065564854       -1.88894460796917       -2.55058158306355
H            4.83098622992252       -2.05307059745392       -1.38541652200809
H            4.91939442721069       -0.62154623430549       -2.39782922026587
H            8.16704293665095       -1.64197519398972       -1.36487469145720
H            9.88677604183386        2.20128089735971        0.22409814349445
H           12.01024454358350        3.44885716848440        0.32206404425669
H           14.15159343608672        2.28465567287221        0.55598466179029
H           14.23963543527753       -0.18387820811075        0.67355409409980
H           13.64324654393400       -2.86642621782264        0.74993086123223
H           12.51656035937503       -5.06767974792304        0.77222369432094
H           10.07616579978351       -5.22352524286671        0.64723247459642
H            8.67854735765439       -3.20133574075756        0.47016946784821
H            8.49019597027819        1.06796159770200        1.91719046320252
H            6.09007972280806        1.60160837286393        1.69576097423549
H            3.72324814364091       -1.14609295460869        1.04345851324091
H            1.31402240137056       -0.62411305909479        0.92374306669988
H            1.30482117063267        3.90791169787435        0.70921457526007
H           -0.15326054004558        5.84677840669450        1.13870271101778
H           -2.56464750884955        5.73200489866012        0.72688959883084
H           -3.60379772228386        3.64849378629663       -0.10995170098987
H           -4.08724682255957        1.15285299783009       -1.08577524989415
H           -6.50922297752095       -2.30165189491857       -2.88819625087454
H           -8.79308841586698       -1.97137985391821       -1.98469683049791
H           -8.64208236037787       -3.23702937284142        0.40178906492347
H           -9.99806966751031       -5.10480786232848        1.23940486094017
H          -12.28877292905833       -4.70057474584515        2.08163181350541
H          -13.19407266028348       -2.38734193089749        2.09885755955731
H          -12.81700196715833        2.11072631890103        1.30958722715392
H          -11.58197806767093        4.09286460742366        0.46317014653482
H           -9.32961270941896        3.79665674916571       -0.51542757620172
H           -8.31342355685292        1.56267650370553       -0.62268981058148
H           -7.14466837031633        0.08337228835189        1.38710592038481
H           -4.88538904212102       -0.25426324899326        0.50959120233766
H           -1.76951612777903       -2.34912855349407       -1.91829384234524
H            0.30844185376281       -1.19431315571287       -1.24879620696631
H            2.21275903201400        2.90110545676198       -1.31072898998235
H            5.46091455476789        3.20880936436463       -0.54534870069950
H            4.41978928300571        3.40469124270608       -1.95864213432312
H            5.63584614296379        2.11684005999642       -1.90942964410306
