  101
       -158.86977052
 C          5.5355665756       -1.3268392372       -1.8653887366
 C          6.3600960953       -0.6544643447       -0.8101971904
 C          7.7125495850       -0.9284845636       -0.6890432477
 C          8.4852002760       -0.3126082409        0.2904282995
 N          9.8506533251       -0.6113218732        0.3980999746
 C         10.8761819366        0.3104802417        0.4563570464
 C         10.8257140180        1.6952409193        0.3809031784
 C         12.0193584817        2.3885195299        0.4404432062
 C         13.2395019768        1.7274245874        0.5629622336
 C         13.2981027352        0.3488931186        0.6139795980
 C         12.1117681642       -0.3700636052        0.5563172078
 C         11.8049257749       -1.7730722519        0.5627665112
 C         12.5811989767       -2.9204889305        0.6551850038
 C         11.9497160928       -4.1483185225        0.6540380329
 C         10.5616669034       -4.2399551964        0.5778542085
 C          9.7679305259       -3.1128713566        0.4849341637
 C         10.3983242002       -1.8767785112        0.4607005348
 C          7.8949836253        0.5998908471        1.1579642126
 C          6.5502971264        0.8889559859        1.0307786446
 C          5.7746554227        0.2697568817        0.0595253344
 C          4.3326372916        0.5894929232       -0.0431264516
 C          3.3958109188       -0.2605257324        0.5314269036
 C          2.0454376690        0.0175725108        0.4618192582
 C          1.6130495277        1.1600362872       -0.2056230610
 N          0.2486288727        1.4540722847       -0.2928481229
 C         -0.3346348082        2.6738942393       -0.0164617453
 C          0.2418912940        3.8437742720        0.4587038309
 C         -0.5866067836        4.9273514714        0.6845728235
 C         -1.9577207792        4.8538728344        0.4559065401
 C         -2.5416090391        3.6827679993        0.0081370704
 C         -1.7308333474        2.5835334100       -0.2272074999
 C         -1.9936072300        1.2349097168       -0.6562503913
 C         -3.1490225814        0.5765638225       -1.0334192154
 C         -3.0657695477       -0.7691724403       -1.4072549803
 C         -4.2397614017       -1.5379181050       -1.8357235004
 O         -4.0909452284       -2.4337684390       -2.7121119485
 C         -5.5318129485       -1.2724638604       -1.2647519967
 C         -6.6698494502       -1.8111011532       -1.9192228111
 C         -7.9297121685       -1.6146150933       -1.4286131049
 C         -8.1173157929       -0.8921714976       -0.2410150786
 N         -9.4204382485       -0.6777158787        0.2710626988
 C        -10.1782483461       -1.7425923118        0.7261467857
 C         -9.6832591919       -3.0469174725        0.7492325137
 C        -10.4701713767       -4.0882280794        1.2022005433
 C        -11.7616152065       -3.8532738956        1.6481823111
 C        -12.2628004193       -2.5623697870        1.6562856583
 C        -11.4810873203       -1.5114648041        1.2062447896
 O        -12.0212456165       -0.2581337703        1.2619717174
 C        -11.2534073615        0.7857302052        0.8310317204
 C        -11.8077441701        2.0533394994        0.8971562676
 C        -11.0889557543        3.1496333813        0.4511011388
 C         -9.8189462666        2.9725758143       -0.0754842481
 C         -9.2572009196        1.7121823175       -0.1450615745
 C         -9.9552158924        0.5977040884        0.3208314624
 C         -7.0024571792       -0.4070971703        0.4544662093
 C         -5.7382096530       -0.6018136862       -0.0375766562
 C         -1.8019543916       -1.3879809545       -1.4934193532
 C         -0.6444483302       -0.7407685834       -1.1305294230
 C         -0.7434713044        0.5722323926       -0.6792424180
 C          2.5494341042        2.0085698931       -0.7904453849
 C          3.9056708287        1.7410814993       -0.7103488003
 C          4.9037527351        2.6670987141       -1.3368464880
 H          6.1641669490       -1.9022000768       -2.5400473435
 H          4.8114128776       -1.9998527188       -1.4076656016
 H          4.9761929693       -0.5922203974       -2.4426009489
 H          8.1836410269       -1.6198285619       -1.3727249281
 H          9.8865548418        2.2156779540        0.2680565064
 H         12.0063363286        3.4672597463        0.3872861727
 H         14.1503725139        2.3056023728        0.6091056428
 H         14.2447586991       -0.1640807231        0.6928562140
 H         13.6557736398       -2.8487478897        0.7304928778
 H         12.5351404652       -5.0531345781        0.7224150929
 H         10.0951662283       -5.2139530555        0.5954183171
 H          8.6921299197       -3.1934697763        0.4446345437
 H          8.4858928272        1.0643263614        1.9326474028
 H          6.0857880051        1.5941797786        1.7049296462
 H          3.7366327489       -1.1430540895        1.0534896944
 H          1.3255202177       -0.6327270334        0.9344981861
 H          1.3008948077        3.9059646720        0.6584091718
 H         -0.1602808779        5.8497949627        1.0505315287
 H         -2.5718317801        5.7222955042        0.6425477758
 H         -3.6075572231        3.6198649261       -0.1512069341
 H         -4.0881817370        1.1061178085       -1.0736377737
 H         -6.5038310330       -2.3616084058       -2.8325073911
 H         -8.7939464201       -1.9965364949       -1.9536187323
 H         -8.6752014083       -3.2313528482        0.4146038940
 H        -10.0686809976       -5.0894038359        1.2092424472
 H        -12.3754042778       -4.6677792443        1.9982595497
 H        -13.2569339309       -2.3452296268        2.0125193481
 H        -12.8040312335        2.1562158989        1.2960640441
 H        -11.5249587433        4.1342686749        0.5069705234
 H         -9.2609073998        3.8211587806       -0.4391943639
 H         -8.2747515386        1.5752960560       -0.5671946869
 H         -7.1520418410        0.0998875730        1.3979829286
 H         -4.8900366995       -0.2733749905        0.5435097799
 H         -1.7678156690       -2.4063590999       -1.8487576075
 H          0.3116814580       -1.2365233137       -1.2053876909
 H          2.2052965880        2.8778574091       -1.3317542891
 H          5.4551235327        3.2041135445       -0.5652429656
 H          4.4090291680        3.3941886603       -1.9758406433
 H          5.6290878372        2.1102394679       -1.9277474099
