101
 energy: -158.955019155496 gnorm: 0.000065579416 xtb: 6.7.1 (edcfbbe)
C            4.96499260477778       -2.11494051005873       -0.46954069651797
C            5.91121226704170       -0.98174256228993       -0.21086231118440
C            7.28106055116312       -1.18601989800899       -0.23826871136395
C            8.16784682187098       -0.14267500185032        0.00745938685853
N            9.54972638243343       -0.37377949392608       -0.02803710514357
C           10.23841044806765       -1.00000339840013       -1.04741944775114
C            9.77303205970510       -1.48415493219020       -2.26168487442608
C           10.69100558453110       -2.05073027027735       -3.12493341083388
C           12.04330140903100       -2.13017630443062       -2.79948377841967
C           12.51608055773649       -1.62842279513347       -1.60354147170159
C           11.61269228242211       -1.05387774790781       -0.71918258528224
C           11.74927914301466       -0.43123798005918        0.56754798617106
C           12.83069856698772       -0.20115856315500        1.40779857269038
C           12.60618454578221        0.41986031643190        2.61997592127243
C           11.32126718477415        0.79686009665280        3.00454224097228
C           10.22975099337234        0.57913922748063        2.18599034036021
C           10.45246270806769       -0.02331084362585        0.95607575799980
C            7.67397810611411        1.12634699345688        0.28933948983531
C            6.30875767248985        1.33339397140678        0.32692153542462
C            5.42173964684815        0.29454313024937        0.07818810276893
C            3.96279023073064        0.54415978942557        0.13354763897664
C            3.26099923718252        0.25147780018904        1.29533184096096
C            1.90134366506493        0.48019795766182        1.38098828966048
C            1.22468821834427        0.99714045369537        0.28256809836485
N           -0.15974734264051        1.22523640780939        0.34882712520656
C           -0.79936634470510        2.40920672597901        0.03295592167190
C           -0.26367713690984        3.61895403363178       -0.38380499167584
C           -1.13772920204212        4.66392102720139       -0.61528946992774
C           -2.51119091802981        4.51867557315501       -0.43246137272368
C           -3.04757652044415        3.32371154853121        0.00380359317040
C           -2.18859803580281        2.25989381643657        0.24526622109530
C           -2.38659905884276        0.91409264767971        0.70808824240638
C           -3.51136402251088        0.18973276162856        1.06361704414225
C           -3.35624989799600       -1.13507751061821        1.45988894307789
C           -4.50135975822541       -1.96257977393353        1.89310690636549
O           -4.36891037791059       -2.89595689785087        2.66325759701638
C           -5.83880603594361       -1.60331204037572        1.35044449705788
C           -6.01326935385108       -1.17773701700290        0.03488925023371
C           -7.27517477052487       -0.88084133840250       -0.43924436961371
C           -8.38363484903720       -0.99306176626475        0.39706461536794
N           -9.66749652108308       -0.66393858311299       -0.08302147025681
C          -10.67199384582328       -1.63319121048545       -0.15118710464901
C          -10.44320533058850       -2.96340854786410        0.17707273718605
C          -11.46215923836581       -3.90031866431689        0.09440244984389
C          -12.72162766603019       -3.52675815284105       -0.32793651645962
C          -12.95765369828952       -2.20875402769553       -0.69033190760316
C          -11.94484866909944       -1.27138557012875       -0.61178306256540
O          -12.24627380217811        0.00495570435420       -1.01904630250076
C          -11.24592682776893        0.94234040147006       -0.95641034064295
C          -11.56389988289572        2.22447676565605       -1.36358003426939
C          -10.61654833636337        3.23575076291139       -1.29941250316054
C           -9.35764902015643        2.95666408772106       -0.80863732536297
C           -9.03290911200935        1.67158914626792       -0.40095344673741
C           -9.95986026564318        0.64052778344943       -0.48813089980045
C           -8.21568495033173       -1.43580141995953        1.70713184910432
C           -6.95539445897319       -1.75049775976440        2.17097151002260
C           -2.07671402068718       -1.71283932997477        1.50206723822733
C           -0.94787074038803       -1.01184962502133        1.14469622278191
C           -1.10309896772929        0.31514504813600        0.75848902269017
C            1.92253551523464        1.28735076115629       -0.88453897345612
C            3.28898287210518        1.07381643260538       -0.97008003885512
C            4.03640584368106        1.39737654775280       -2.22768618003977
H            4.19937656346317       -1.82314212093773       -1.18675767324503
H            5.49616192483768       -2.98305485794831       -0.85140598963760
H            4.45733547876467       -2.39934097023899        0.45182220552548
H            7.67269424753886       -2.17288854805158       -0.43808213222910
H            8.72986124213197       -1.41129757491875       -2.53063207206625
H           10.35304937226734       -2.43772628563360       -4.07510230432915
H           12.72864984400226       -2.58351503565710       -3.50012827918352
H           13.56629882971128       -1.67554304150484       -1.35788488359069
H           13.82395786207463       -0.50777754440403        1.11629990379855
H           13.43359360069325        0.61014013074950        3.28728922194326
H           11.17443194445385        1.26676329147595        3.96596736577039
H            9.23554473641015        0.85908428852049        2.50045227400115
H            8.35831310729582        1.94244126401035        0.46425314896198
H            5.91949236950233        2.31626103695134        0.55097222182535
H            3.79387029154077       -0.14884788799903        2.14559908705833
H            1.36535919021871        0.27318533171925        2.29466367370465
H            0.80049397873789        3.74515223147363       -0.51302159300103
H           -0.74682203484569        5.61583567362213       -0.94280471241583
H           -3.16072229645012        5.35869967092555       -0.62777120923553
H           -4.11023375827373        3.21512072469665        0.15994545566740
H           -4.48395889817187        0.65791142311409        1.05696523049354
H           -5.16185049164805       -1.10752592417781       -0.62597640718118
H           -7.41398927224830       -0.56333407691604       -1.46235802966219
H           -9.45931821054047       -3.27314615224181        0.49255610199940
H          -11.25687423551046       -4.92560594976837        0.36098207867074
H          -13.51884096938078       -4.25054675528508       -0.38944199641829
H          -13.92436001643620       -1.88705254578798       -1.04346203751641
H          -12.56301624483814        2.41227093032842       -1.72293313448732
H          -10.87337531674977        4.23236651542695       -1.62190091100914
H           -8.61534981020174        3.73651328717276       -0.73381076418110
H           -8.05053799543662        1.47149372713313       -0.00283845050696
H           -9.07717923426576       -1.52723049875441        2.35196446769007
H           -6.81239558127969       -2.09910151735550        3.18276321467259
H           -2.00242566598494       -2.74198807810154        1.81967617116803
H            0.02492988636542       -1.47910505774637        1.15942770862723
H            1.38406952333925        1.67239551564047       -1.73849671229451
H            4.71842544542804        2.22987001355032       -2.05740087909945
H            3.35161229585876        1.66812059385567       -3.02726646755817
H            4.63657415885572        0.54714558981504       -2.54794737877553
