56
 energy: -91.785532755616 gnorm: 0.000171850602 xtb: 6.7.1 (edcfbbe)
O            4.76238681633149        0.72929620721699        2.45188084044772
C            5.33970652993505        0.82052316626226        1.38294428398855
C            5.08319424849410        2.02199609992437        0.47803918139177
C            4.00871387249973        1.55928033190052       -0.46023196756096
C            2.72330351659125        1.35672188109289       -0.03396948364019
C            1.76957599564506        0.88317655265742       -0.97015714238814
C            0.39634082933586        0.64674723628700       -0.69057262634340
C           -0.19223344547216        0.87409123286410        0.57421829194856
C           -1.52390792960377        0.62812723673999        0.78976978265750
C           -2.33116978336896        0.14117080673376       -0.24204896694065
N           -3.70713803361140       -0.11216027611855       -0.01185476256843
C           -4.19299490174849       -1.40893126444519       -0.02584983485157
C           -3.36018532687459       -2.50901778490853       -0.22633850414927
C           -3.87983772523656       -3.78977586133369       -0.23941264059116
C           -5.23530699804210       -4.00133608994819       -0.04626235663991
C           -6.07518016806038       -2.92315550597639        0.17705397863436
C           -5.56349664918903       -1.63644017729139        0.19348801478732
O           -6.43799485234280       -0.61641118042255        0.44208697969329
C           -5.94190532997317        0.65644355942765        0.46405456563051
C           -6.83613525994652        1.68332977413879        0.71638198831640
C           -6.39901959617264        2.99728030167001        0.72848764551789
C           -5.06744940252122        3.28214726942913        0.47332580639203
C           -4.16728020062005        2.26377755683928        0.22205757122132
C           -4.58312782313342        0.93300998860053        0.22871885754567
C           -1.77056676015515       -0.09431142205825       -1.50260573782416
C           -0.44229924696146        0.15192526795740       -1.71991391387930
N            2.22127541414178        0.62123032980352       -2.23592138914730
C            3.46091328905594        0.81034877544698       -2.55997776206586
N            4.37695110031261        1.28688315356187       -1.73983123306938
C            6.26017410598880       -0.22158594744493        0.89556483763457
C            6.67626023013791       -1.19391998577620        1.81129782359443
C            7.55663960385007       -2.18700438092152        1.43628448531538
C            8.03127065981636       -2.23458736939694        0.13409330791448
C            7.61465709391639       -1.28524259403866       -0.78598110297770
C            6.74225492761123       -0.27996128249630       -0.41414746320587
H            5.97074224760663        2.32681480592979       -0.07139978433700
H            4.71980478269920        2.84359024375123        1.09671499579778
H            2.45768159127950        1.54816377221636        0.99237754037190
H            0.40785673231135        1.23885652679492        1.39197476116484
H           -1.96083192354866        0.79732651114894        1.76390020733869
H           -2.30301112062374       -2.34936152427653       -0.36501576471292
H           -3.21793610043466       -4.62656609717281       -0.39847751384490
H           -5.63976940540381       -5.00081016569575       -0.05940829645393
H           -7.13159735937800       -3.05631444645401        0.34598302003894
H           -7.86866315482567        1.43053293999147        0.89598410456468
H           -7.09955549712847        3.79240490652002        0.92780243768366
H           -4.72379211934141        4.30466049437768        0.46627161153608
H           -3.13411604346499        2.48984969098287        0.01266366861537
H           -2.40179164133107       -0.46048641684575       -2.29995303334161
H           -0.00084404255287       -0.01874605317810       -2.68971461106579
H            3.76767106728771        0.57734100098093       -3.57080671012662
H            6.29235245936297       -1.14183143997776        2.81938328621026
H            7.87455142819407       -2.92770453294517        2.15562060979246
H            8.72057667825508       -3.01123736081114       -0.16377160809978
H            7.97599103002043       -1.32853607960638       -1.80339503558081
H            6.41385343637285        0.43378503129611       -1.15373223164209
