56
 energy: -91.858271487011 gnorm: 0.000044763247 xtb: 6.7.1 (edcfbbe)
O            4.72401584741356        1.98594432589289        1.29894691744798
C            5.35558654194944        1.38860988101497        0.45694641472941
C            5.02171928185903        1.55319271096338       -1.02384993987123
C            3.95950312962094        0.54701675062809       -1.35827786824198
C            2.64641166329906        0.72714603762749       -0.94419138428542
C            1.72756076817451       -0.26993185335819       -1.27438743098115
C            0.31419604971998       -0.20571572172849       -0.89983171166261
C           -0.13046151186537        0.56060240842315        0.17750792145158
C           -1.47176186977448        0.60714072121891        0.49617798391670
C           -2.40050786745325       -0.10467074877657       -0.26023361433729
N           -3.77097284924097       -0.04146693075099        0.05746868086562
C           -4.47154197123390       -1.19441423215473        0.42431985814197
C           -3.85145090891384       -2.43065152601885        0.55600869574933
C           -4.57664679387557       -3.55385029688580        0.92378827862293
C           -5.92967926944145       -3.45934648912082        1.17804868840312
C           -6.55683147370083       -2.22579121579823        1.08557110183460
C           -5.83782355281069       -1.10247154160755        0.72174382214649
O           -6.52165333389246        0.08713997084942        0.68780424534190
C           -5.81797261015468        1.21191690113523        0.33731056387770
C           -6.52059957273914        2.40197356166156        0.30065600335615
C           -5.88946106152350        3.57709229740098       -0.07926103378798
C           -4.55811379507716        3.54619568236242       -0.44067719995178
C           -3.84832210720791        2.35559492585020       -0.40303683131229
C           -4.45598143718686        1.17616752922815        0.00923815991530
C           -1.96012870335706       -0.88108354266268       -1.33073228864401
C           -0.61823051670344       -0.93499357799887       -1.63954992240550
N            2.11580545908639       -1.33605783061519       -1.98445378872146
C            3.38249344842573       -1.40919994422931       -2.32193287690594
N            4.33079507744057       -0.53399210525362       -2.03930504546311
C            6.45881225438689        0.46675137989754        0.79904918880441
C            7.06739721789481        0.61691599895031        2.04662234516981
C            8.10879279896493       -0.20819972018738        2.42186692896228
C            8.54268930667850       -1.20544275426600        1.56247700193784
C            7.92888788377782       -1.37529092302906        0.33145375452374
C            6.89659052872403       -0.54208541479942       -0.05895580971321
H            5.89692246260497        1.39792898340073       -1.65012066696438
H            4.62390147557355        2.55937230486109       -1.16407038260025
H            2.36340887395673        1.61088496703131       -0.39716434592081
H            0.57533353086163        1.09853392215470        0.79184587338593
H           -1.81112193100115        1.18956158536999        1.34009335488022
H           -2.79103512004277       -2.51705654241811        0.37868605107628
H           -4.06889364828803       -4.50191346371825        1.01236807060511
H           -6.49943299807944       -4.33086060321917        1.45917707169607
H           -7.60768143263789       -2.11160663512429        1.29855711460242
H           -7.56504071814346        2.38572215609551        0.56811181750090
H           -6.44480921085986        4.50135339188217       -0.10141700223590
H           -4.05750143061530        4.44742005647628       -0.75970001019313
H           -2.81331355769999        2.34400378942586       -0.70645098326424
H           -2.67980310545956       -1.43160641794396       -1.91843997049810
H           -0.26592676754758       -1.53060361511070       -2.46692544434808
H            3.68479398386316       -2.27974748190054       -2.89109529641577
H            6.71036919454304        1.39601815351965        2.70377113222955
H            8.58130094635304       -0.07829631600490        3.38415224859747
H            9.35595918555449       -1.85363197970647        1.85417211262968
H            8.25947404355891       -2.16173175853195       -0.33080072372545
H            6.41234650181131       -0.70074447768194       -1.01039275055169
