56
 energy: -91.785529405014 gnorm: 0.000044517143 xtb: 6.7.1 (edcfbbe)
O            4.80724947053684        1.78132662209240        1.78330552457857
C            5.37801102287263        1.36415328315129        0.79121816425125
C            5.08323165790061        1.97948430530727       -0.57389592410342
C            4.00425689640583        1.11220684368218       -1.15030336327552
C            2.72145647318173        1.15058833638666       -0.67278977008605
C            1.76276761354965        0.27670096163710       -1.24509575609288
C            0.38956974128670        0.21860366832054       -0.88336622805222
C           -0.19520976247337        1.05411702616178        0.09527916259067
C           -1.52834972986462        0.95911715646644        0.40215798359236
C           -2.34064744847712        0.02536423169026       -0.24711380974459
N           -3.71909280778399       -0.06548325407425        0.07307675909627
C           -4.21766011442522       -1.18670150754973        0.71486774451957
C           -3.39540199807487       -2.24330089943841        1.10393397212270
C           -3.92751133789722       -3.34997294051162        1.73852670158707
C           -5.28515935835456       -3.42367943940520        2.00450759402186
C           -6.11477749602991       -2.37449728228136        1.64573481829836
C           -5.59062831366842       -1.26099107950402        1.01087773715894
O           -6.45549798637728       -0.24907135043841        0.70246076603839
C           -5.94746300200330        0.85416798382901        0.07671152061057
C           -6.83254454502451        1.87252296518521       -0.23536069767088
C           -6.38290569008888        3.00670457211848       -0.89046176766193
C           -5.04782223627330        3.11331156965442       -1.24472267070151
C           -4.15673536691464        2.10272725695676       -0.93614013878254
C           -4.58551280749500        0.96309356120824       -0.25699094249035
C           -1.78340940766006       -0.81664463348158       -1.21621386688013
C           -0.45383278484533       -0.72188857071086       -1.52515040511598
N            2.20840598997184       -0.58328493195047       -2.21295998745524
C            3.44608735455706       -0.58279589332563       -2.59473465773881
N            4.36538172512330        0.23867066268675       -2.12710717523722
C            6.33160707496203        0.24232526630254        0.84591926794222
C            6.79920885924683       -0.14610438098113        2.10582550967484
C            7.71522878980498       -1.16901315804591        2.23472601658340
C            8.17415085422945       -1.83245570144521        1.10668384158482
C            7.70559058850410       -1.46713827811253       -0.14564269549048
C            6.79740236121721       -0.43461843834721       -0.28359871272724
H            5.95677147164639        1.99159219770101       -1.22142979092066
H            4.71229647786242        2.99327815010425       -0.41798542447726
H            2.46111844386455        1.82722715807424        0.12404271729586
H            0.40862714407629        1.77657365148545        0.62001695923656
H           -1.96280729473611        1.59850939272658        1.15773266179362
H           -2.33665145433424       -2.18418753770504        0.90919660460130
H           -3.27373633832804       -4.15731028356070        2.02906786121749
H           -5.69932777151026       -4.28875836977874        2.49727435833115
H           -7.17264943919592       -2.39545936929984        1.85251580820061
H           -7.86797143921643        1.75330892993357        0.04023784034548
H           -7.07644721611344        3.79712030479033       -1.12909976229792
H           -4.69431688955341        3.98769166503628       -1.76834599402105
H           -3.12072061454347        2.18390152763411       -1.22332532796210
H           -2.41828993892154       -1.53018039056468       -1.72226270071760
H           -0.01504690834756       -1.36007666534702       -2.27662930536953
H            3.74788477990099       -1.28952776061561       -3.35604254218374
H            6.42706963519735        0.38037064124669        2.97223164196481
H            8.07332791126124       -1.45401944379088        3.21333428198324
H            8.89151003034788       -2.63436457220284        1.20356436219958
H            8.05436101904499       -1.99161183095398       -1.02362711046366
H            6.42792061691726       -0.18392353119009       -1.26597552331394
