  56
        -91.78118362
 O          4.7560880924        0.7328731296        2.4461696956
 C          5.3368606690        0.8171883528        1.3772431095
 C          5.0818556906        2.0155479614        0.4661190607
 C          4.0095963418        1.5504308252       -0.4732622967
 C          2.7203868448        1.3612624653       -0.0469185568
 C          1.7676860001        0.8857927376       -0.9824044283
 C          0.3939603926        0.6556954690       -0.7000610576
 C         -0.2005816769        0.9142993238        0.5572101248
 C         -1.5312104380        0.6695615616        0.7747265697
 C         -2.3341185052        0.1489883238       -0.2462090049
 N         -3.7070283868       -0.1072302325       -0.0129735997
 C         -4.1911986017       -1.4043979354       -0.0319714466
 C         -3.3571765921       -2.5037855744       -0.2365357566
 C         -3.8758382016       -3.7843980908       -0.2556931531
 C         -5.2316541036       -3.9984506204       -0.0638328095
 C         -6.0720948117       -2.9226109329        0.1667268150
 C         -5.5613233995       -1.6352882003        0.1897059590
 O         -6.4352583518       -0.6187325928        0.4491128058
 C         -5.9416811237        0.6539185599        0.4781088047
 C         -6.8369943386        1.6774003262        0.7419550853
 C         -6.4030868441        2.9920904238        0.7575699028
 C         -5.0740706618        3.2817134141        0.4919548430
 C         -4.1730586231        2.2675234365        0.2296370126
 C         -4.5843055723        0.9345117282        0.2362421547
 C         -1.7670211646       -0.1164068605       -1.5000230876
 C         -0.4407588677        0.1317287350       -1.7198022110
 N          2.2172653641        0.6056545549       -2.2425618670
 C          3.4606393122        0.7862658765       -2.5600649666
 N          4.3808552135        1.2674250512       -1.7450645136
 C          6.2601694388       -0.2234727922        0.8984781726
 C          6.6835465943       -1.1865896239        1.8216389056
 C          7.5678802272       -2.1781114772        1.4529269567
 C          8.0390458605       -2.2353463691        0.1495348383
 C          7.6146994531       -1.2961979269       -0.7777604517
 C          6.7394242896       -0.2912821976       -0.4126448417
 H          5.9709321852        2.3173534277       -0.0826063418
 H          4.7178223417        2.8389948062        1.0819061490
 H          2.4544376432        1.5602225025        0.9778022390
 H          0.3954888429        1.3030691049        1.3668537314
 H         -1.9716821081        0.8606068268        1.7433018111
 H         -2.2998222482       -2.3432930340       -0.3717156670
 H         -3.2131854709       -4.6200148578       -0.4172966632
 H         -5.6349189711       -4.9982934007       -0.0821526806
 H         -7.1280631346       -3.0572726390        0.3371177101
 H         -7.8676561624        1.4208569837        0.9266132697
 H         -7.1038406441        3.7845516924        0.9660658392
 H         -4.7339152079        4.3053204639        0.4847549467
 H         -3.1430553969        2.4979871829        0.0102727832
 H         -2.3952657544       -0.5025472619       -2.2902762009
 H          0.0055470716       -0.0574803753       -2.6837863674
 H          3.7693077006        0.5415648705       -3.5677526703
 H          6.3026369071       -1.1274842357        2.8304526079
 H          7.8924872737       -2.9102561378        2.1780655427
 H          8.7314122475       -3.0111706155       -0.1433177688
 H          7.9721388368       -1.3476879653       -1.7961885164
 H          6.4032683795        0.4128434350       -1.1576920539
