56
 energy: -91.855097739345 gnorm: 0.000049343623 xtb: 6.7.1 (edcfbbe)
O            4.28702506585182       -0.88903187707248       -0.40651908551661
C            5.14862331022097       -0.15730459331068        0.02187225029729
C            4.86427608829372        1.28532067143796        0.42974433769125
C            3.59496929498600        1.79003647388969       -0.18338549360948
C            2.36240486042045        1.21507358058711        0.09677047989410
C            1.24852573357474        1.73477934434976       -0.56516607810509
C           -0.11054610651948        1.21862989845965       -0.38402404897657
C           -0.46710916955962        0.41529245042969        0.69884006101158
C           -1.75844014581446       -0.05206625866282        0.83105703779065
C           -2.72398786278684        0.26965563043112       -0.11950325243678
N           -4.04110023889652       -0.21354064284609        0.01601325651936
C           -4.30042918533176       -1.58619471694528       -0.01151443275085
C           -3.30129925519866       -2.52650546105811       -0.22953980858524
C           -3.59417735714109       -3.88170514192693       -0.25418302329357
C           -4.89021650201525       -4.31939508609760       -0.07321755292536
C           -5.90444556675611       -3.39161986291007        0.11330045681278
C           -5.61815150654973       -2.03951405744061        0.13665998634029
O           -6.67936663429431       -1.18265269747830        0.29277712151793
C           -6.40943531289538        0.16331919181342        0.30618750303470
C           -7.48571989105677        1.01502683369115        0.47020088454456
C           -7.29089722564366        2.38721004486713        0.52808370756664
C           -6.01126845780180        2.89578755825206        0.43908777983618
C           -4.92829415028450        2.04594709783025        0.27209299629517
C           -5.10956721219613        0.67165467219550        0.17982434537447
C           -2.37682071149361        1.07644093187992       -1.20101004019454
C           -1.08752575152527        1.54645316639353       -1.32628087639915
N            1.38998020813233        2.75066653033529       -1.42468322314433
C            2.60129752052613        3.22375800227387       -1.61058333671621
N            3.71396806992252        2.80114106959939       -1.03939473943542
C            6.54972212111946       -0.61599206402406        0.18658760837407
C            6.93309590515115       -1.77308240221324       -0.49315142845938
C            8.22122984374784       -2.25888091098912       -0.38518866464292
C            9.14164442917799       -1.60167361284549        0.41534521195269
C            8.76692451833440       -0.46032726437112        1.10663185560749
C            7.48161201478013        0.03605747079741        0.99280570267357
H            5.68405922904100        1.93242612987435        0.11796959832543
H            4.78519646707699        1.30161867001125        1.52061018661234
H            2.28995812106558        0.38178182665345        0.77421845896259
H            0.25718675901086        0.16869793829789        1.45967538415095
H           -2.03239960471228       -0.66500200043476        1.67734957669545
H           -2.28658293962446       -2.19810956544805       -0.39074480870465
H           -2.79659967977786       -4.58927673496015       -0.42082578996954
H           -5.12286606938210       -5.37247267549288       -0.08716112276633
H           -6.93086480820021       -3.69788838653302        0.23743290521207
H           -8.46975670880503        0.58263569696733        0.55656605171847
H           -8.13714824539253        3.04406230976295        0.65329665343018
H           -5.84035742162034        3.95945829208478        0.50221539813737
H           -3.93218356417073        2.45662802877853        0.22101318916553
H           -3.12441905236046        1.32286669452363       -1.94054180122430
H           -0.80579529623586        2.16916431883283       -2.16053753409700
H            2.69895479765373        4.04766164802535       -2.30709693209655
H            6.19964845665260       -2.27292881878898       -1.10816649117873
H            8.50877264873400       -3.15051027048502       -0.92194622722562
H           10.14948109865496       -1.97919936664014        0.50415651621858
H            9.48224508369136        0.04616705055804        1.73767199164887
H            7.20697098821540        0.91945624508137        1.54830529902202
