161
 energy: -224.951810330771 gnorm: 0.000064620204 xtb: 6.7.1 (edcfbbe)
C          -13.25786516614878        1.55899936249716       -4.68813544719369
C          -13.07994716822701        2.27578836905217       -3.34227142826231
C          -14.44737027935056        2.34378872272754       -2.65652940707466
C          -12.59549642727889        3.71340657104799       -3.57846444071621
C          -12.04514161806578        1.53166790297562       -2.51049451911197
C          -10.74355048292687        1.39734664078365       -3.01262594277857
C           -9.73672910525620        0.75090916622593       -2.32534229606874
C          -10.03459491506917        0.22180395117081       -1.07897629960272
C          -11.34446429900656        0.31672869198069       -0.56392441043863
C          -12.33863572654472        0.97288412345891       -1.27791419639367
C          -11.33602755809194       -0.36675616123428        0.69964895260213
C          -12.31221880150504       -0.58831815013913        1.66240815728426
C          -11.99250374401144       -1.27831029175822        2.81970682568528
C          -13.01137501431564       -1.56576292450167        3.91313750850902
C          -14.40445158934451       -1.02744524781917        3.57529165316914
C          -12.55010105805790       -0.90494102318054        5.21984769628004
C          -13.12391201035140       -3.08426396623708        4.10967600122684
C          -10.67338729855250       -1.71913646526173        2.99253531118454
C           -9.68396746607699       -1.51315763545597        2.05323018951314
C          -10.02285738285446       -0.84704300339246        0.88548469623627
N           -9.24218076717835       -0.48573705239246       -0.19577261168960
C           -7.88629515464035       -0.78586113748804       -0.36310321382862
C           -7.42402284814445       -2.08394897930392       -0.16082912437629
C           -6.08465497472958       -2.37598347250594       -0.31546089693034
C           -5.17193368303523       -1.38812183928068       -0.68174677111859
C           -3.74669517723554       -1.70291515319954       -0.84118930793366
C           -3.34947095273794       -2.90229434635786       -1.43491599292360
C           -2.01368796525475       -3.22551598943836       -1.59003715249010
C           -1.05336838451380       -2.33336260024012       -1.14071963290448
C           -1.44445569434171       -1.12208562204019       -0.54702049987294
C           -2.77383044488163       -0.80335862951129       -0.39672837665237
C           -0.24027975404186       -0.30669859762941       -0.14435780246264
C            0.89362822315943       -1.22507622755521       -0.56933678334695
C            2.24208081409026       -1.01731406065630       -0.42915390810831
C            3.13748670123816       -1.99094568616354       -0.87743257950340
C            4.57624563879156       -1.75042563246037       -0.71851681901557
C            5.05560044465470       -1.12253622005215        0.43169589690075
C            6.39476331034363       -0.82883163621876        0.57459036404111
C            7.29365025552107       -1.14689370673967       -0.44081275887814
N            8.64248445895158       -0.80071923467784       -0.31235838066366
C            9.11666981841722        0.44302129332265        0.05642515128852
C            8.43202195154064        1.61919604420487        0.32108803428290
C            9.16934821535972        2.74016728867306        0.64202916366570
C           10.56963758546457        2.73916924218755        0.70183020201432
C           11.28834332832063        4.02798734536265        1.07448714720446
C           10.83239000267573        4.47287987558461        2.47145699091089
C           10.94527428648097        5.11389043844208        0.04476411559461
C           12.81055613428552        3.86562419618887        1.10276947349878
C           11.24344103151222        1.56527936627505        0.40860214147577
C           10.52667136255478        0.42118893779688        0.08229858556186
C           10.91916310675910       -0.91137248803869       -0.28519597537281
C           12.15405838582056       -1.53398523798265       -0.41253433032863
C           12.21664923692388       -2.87095705952317       -0.76820953474187
C           13.53326171130938       -3.61701071025464       -0.93031123649880
C           14.75092023548789       -2.72208701695035       -0.68323528857779
C           13.62967663559014       -4.16501880557731       -2.36119297456222
C           13.58283540699940       -4.77614549871438        0.07517890325859
C           11.01692906331998       -3.56549321710424       -0.97509653018420
C            9.77669360055423       -2.97286205005658       -0.85597856835899
C            9.72756385640658       -1.62798186379681       -0.52382853567582
C            6.82960188794217       -1.79520382345852       -1.58241040416939
C            5.48883437692661       -2.09714099961873       -1.71280177613329
C            2.64034163651542       -3.15371932515600       -1.46617930433921
C            1.27950987928306       -3.36712637216984       -1.60479451796484
C            0.39714815903575       -2.39846000190338       -1.15195131930798
C           -0.12886921376054       -0.07240622331138        1.34421238145146
C           -0.68846979835606       -0.96291071289999        2.24437111769227
C           -0.46161991644122       -0.84062798575670        3.60421667482452
C            0.36193126877545        0.17021835666968        4.06590704107972
C            0.91921039991073        1.07487949948706        3.18335253069823
C            0.66249489355236        0.98305257763235        1.81524225836395
N            1.18571184021472        1.90809828481680        0.91971034322664
C            2.15047838631853        2.85892381827248        1.34976438049320
C            3.46992796168755        2.71600077445867        0.93781113081464
C            4.42567684697233        3.62755315417310        1.34960147267290
C            4.07048363711018        4.68401531273481        2.17091523759918
C            2.75386189277082        4.83390406505483        2.57442325864959
C            1.79280177757788        3.92738100056280        2.16446630119725
C            0.65064169485407        2.02925119767782       -0.35648071086930
C            0.85140867223244        3.19144695093433       -1.10168389467962
C            0.29144213751742        3.32504351113848       -2.35682492780347
C           -0.48670843239027        2.31035516186176       -2.88535264502943
C           -0.68465289112937        1.15203601484548       -2.15392765460077
C           -0.12257274941363        0.99699300846340       -0.89813216203767
C           -5.64509881545647       -0.09320632956701       -0.88806710693047
C           -6.98221490131949        0.20815156814472       -0.72927102367291
H          -13.57807501507830        0.53170959345121       -4.52651263394793
H          -14.01198252887930        2.06608125391052       -5.28675097581703
H          -12.33067655342166        1.54085876889733       -5.25405813946833
H          -14.38085710271866        2.86175120709909       -1.70252212986719
H          -15.14328311500129        2.89203405932199       -3.28870992809807
H          -14.85413590828180        1.34817105389375       -2.49515804479300
H          -13.33316204076024        4.26861778446585       -4.15442159841877
H          -11.65570757841941        3.73133722710800       -4.12320321934940
H          -12.44725673785996        4.22016387361872       -2.62699831766624
H          -10.50501576229100        1.81060927964482       -3.98094466664884
H           -8.75186450330700        0.65383408876893       -2.75724667886115
H          -13.32666570097884        1.02849176606783       -0.85227015805299
H          -13.30504742861467       -0.20951217196657        1.48555556259825
H          -14.78794607208056       -1.48013446410309        2.66379411705430
H          -14.38823337187257        0.05364351205806        3.45809382406549
H          -15.09186862412469       -1.26684785636707        4.38439736129805
H          -11.59264326627715       -1.29964266298038        5.54810799714268
H          -13.27931203272114       -1.08191097732960        6.00793153686960
H          -12.44550290745334        0.16911590860413        5.08039028094629
H          -13.86394457668221       -3.31016205077540        4.87482867894172
H          -12.17551983497250       -3.51633870490478        4.41648655149556
H          -13.43072032808553       -3.56092265153427        3.18085402764134
H          -10.40451900864195       -2.24116032955817        3.89835366880950
H           -8.67510731920600       -1.85207853838618        2.23549721353643
H           -8.12371690864864       -2.86184876364250        0.10604655953980
H           -5.73737590999735       -3.38290202217034       -0.13614429727120
H           -4.10533791169677       -3.58256114171842       -1.79954857682816
H           -1.72699057314519       -4.15683424556877       -2.05566236094801
H           -3.06281008287205        0.12148297778716        0.08110107893917
H            2.61412907295509       -0.10493762947598        0.00842169811789
H            4.37244273958098       -0.88471225680738        1.23429818837473
H            6.75693453326830       -0.36092377607699        1.47794442155704
H            7.35434900826072        1.66443602441213        0.26646753841195
H            8.63292726423910        3.65382392031430        0.85011526498669
H           11.05422029276425        3.69823419903998        3.20271217487432
H            9.76404287117616        4.66866973119543        2.49730313885468
H           11.35208189015697        5.38307757644262        2.76394294352591
H            9.87922086104693        5.32263510931289        0.02699362813540
H           11.24587736073973        4.79472981959069       -0.95108259274246
H           11.46868913003365        6.03730971437805        0.28442005269601
H           13.27114527297916        4.81163011634766        1.38100160268079
H           13.19196299854677        3.58215582568823        0.12455651859301
H           13.11049086999284        3.11830081426104        1.83376126076746
H           12.31929503108555        1.51286510283135        0.42102686171384
H           13.04383007614149       -0.95660546115928       -0.22430408382979
H           15.66129768616967       -3.30220107695538       -0.82155165017911
H           14.75188700528683       -2.33430388468295        0.33282375047913
H           14.77313872578241       -1.89022367223625       -1.38349044367055
H           12.82437975751793       -4.86219176902767       -2.57489428385086
H           14.57531344522440       -4.68487646421763       -2.50118744678489
H           13.57395534541555       -3.34969075325668       -3.07963700283625
H           13.49202151095937       -4.39594866443628        1.09066471427608
H           14.52802716239363       -5.30830431124030       -0.01150486989987
H           12.77708373062373       -5.48461726273222       -0.09552729205532
H           11.05025081790476       -4.61253504012169       -1.23550181078832
H            8.87527608350898       -3.54822230209402       -1.00552768087047
H            7.52156797521312       -2.03457597534269       -2.37606544989961
H            5.13668565243828       -2.57380917495966       -2.61574010560948
H            3.33326748831260       -3.91332362530621       -1.79812238751924
H            0.91447016424046       -4.27875129983563       -2.05460878285725
H           -1.29682880490866       -1.77391137521851        1.87186353227978
H           -0.90514231455374       -1.54370587916612        4.29225719226084
H            0.57430904967419        0.26043548795098        5.12095147756856
H            1.56486297638345        1.85419883849126        3.55808801894682
H            3.74360866016597        1.89528076478909        0.29050438823083
H            5.45033336882479        3.51082071124170        1.02931252505532
H            4.81769512399646        5.39330506120587        2.49375878861062
H            2.47292272183214        5.66226955222836        3.20781594373197
H            0.76218268271293        4.04225598178941        2.46730054747992
H            1.44736613867819        3.99275716489501       -0.69111368547502
H            0.46117226150717        4.23067477723509       -2.92007906926571
H           -0.92846600100392        2.41303297233776       -3.86463397713803
H           -1.27495723183985        0.34855531721559       -2.56949161951151
H           -4.95733017747606        0.68422332856044       -1.18710980370352
H           -7.33312697101946        1.21913558039706       -0.87323737811490
