161
 energy: -224.868655581570 gnorm: 0.000058262260 xtb: 6.7.1 (edcfbbe)
C          -12.76740683452277        3.01723095010154       -4.29294324339889
C          -12.71429449819586        3.28967576622261       -2.78291764008508
C          -14.14215809416699        3.21090560191860       -2.23552680035339
C          -12.18557266523584        4.70850824025660       -2.52846714412984
C          -11.77988562993012        2.28437107261774       -2.12644594303378
C          -10.43649966023691        2.24930858777389       -2.52476308323800
C           -9.51477696371382        1.37887562950518       -1.98024247977046
C           -9.94552959958381        0.51055250765108       -0.98800163749552
C          -11.30019321514802        0.50427180745127       -0.59106548858165
C          -12.20602029260457        1.39048862309542       -1.15622551152588
C          -11.43014459489527       -0.53558200794328        0.39319408206355
C          -12.49988216668292       -0.99563961672313        1.14769090087417
C          -12.30758685251627       -2.02194135081638        2.05965066510568
C          -13.43486110663092       -2.58163622719461        2.91445601345695
C          -14.78030307988342       -1.90888675619163        2.62834819972741
C          -13.09891811940857       -2.36382763974798        4.39666772931112
C          -13.58460824260675       -4.08297215725467        2.63002489011296
C          -11.01905550698848       -2.55360770388202        2.20674304175180
C           -9.93789058051416       -2.11554062299260        1.46990327832151
C          -10.14874705666663       -1.10985978212831        0.53811305940863
N           -9.25791040874401       -0.46993552728974       -0.30058800485423
C           -7.90012276862985       -0.76370393269815       -0.43279652907774
C           -7.46883998489509       -2.08499891258493       -0.59080199279068
C           -6.13468075943304       -2.37055493445352       -0.73263577976706
C           -5.15195515832963       -1.35735390491142       -0.70959640803159
C           -3.75501452116541       -1.65456606133132       -0.85607187397720
C           -3.31617188522527       -2.83293170580754       -1.52248476006351
C           -1.99722540676845       -3.13164927974519       -1.69637432293454
C           -1.01250287166226       -2.25795781339181       -1.18235052668269
C           -1.44301021870872       -1.07276532363201       -0.50192772018081
C           -2.75801891474308       -0.77349366675655       -0.35065515008359
C           -0.24518221663427       -0.27826323097739       -0.03392739096005
C            0.90141815042802       -1.16398457194431       -0.50394354461698
C            2.23029471359264       -0.96579454496640       -0.33415349698503
C            3.16652041623479       -1.88670580048683       -0.87687864694344
C            4.57339001850973       -1.65397565496458       -0.71953519141299
C            5.06856244962449       -0.89053980559432        0.36099019814027
C            6.40238438798460       -0.60219033054198        0.48743022025388
C            7.32190208646851       -1.05886235167259       -0.46340878240036
N            8.67029271130297       -0.72024497126152       -0.35414927174177
C            9.15839391985884        0.54401874673985       -0.08825914948027
C            8.48859742957577        1.74930722666058        0.06337336475565
C            9.23856422289437        2.88330417818600        0.29793661239700
C           10.63784793595769        2.86807054572730        0.37805024753012
C           11.37141704170670        4.17248907597472        0.65235866347086
C           10.89722177680961        4.74357414004610        1.99646038155829
C           11.06502492340224        5.16992915601884       -0.47396145609883
C           12.88985779842917        3.98975317499974        0.72500711431335
C           11.29835797486499        1.66395950563862        0.18996978445684
C           10.56879250334928        0.50753576115299       -0.04735926574664
C           10.94665976110971       -0.85588798538021       -0.30216983418905
C           12.17384722065901       -1.49988281098813       -0.37135372350378
C           12.22231770095252       -2.86365280211839       -0.61486480722488
C           13.53095720792025       -3.63319566612885       -0.71470166966668
C           13.62100891374240       -4.29379609774401       -2.09776713575499
C           13.56844711383913       -4.70953047517281        0.37949254237416
C           14.75763962030611       -2.73385856609892       -0.53832062722497
C           11.01497490471998       -3.56012205312115       -0.76322182993174
C            9.78128563735225       -2.94567649163957       -0.69855623360041
C            9.74599063577587       -1.57534874135908       -0.48707147870361
C            6.85872529299704       -1.84742226452168       -1.52246675938576
C            5.52370751039962       -2.14189649698552       -1.64120477665724
C            2.65264782686144       -3.01019914307727       -1.58093756208513
C            1.31461477566342       -3.23313307809728       -1.72676403119922
C            0.38907480276620       -2.30761886825152       -1.19074379445171
C           -0.14711978997724       -0.13450579757424        1.46415719336532
C           -0.69067589787382       -1.09484739486274        2.30037001331834
C           -0.47260059522306       -1.05915660435382        3.66648718548134
C            0.32914167391111       -0.06551472809808        4.20036626181940
C            0.87187672910035        0.90714998313176        3.38398509250387
C            0.61979496879025        0.90389155816477        2.01125709216429
N            1.12328588847671        1.90062548675268        1.18469823260931
C            2.08660187837405        2.82352294939858        1.67146019603074
C            3.39718097984896        2.73353964697110        1.21687385492596
C            4.35367320547871        3.61590814985945        1.68555786993349
C            4.00801846883117        4.59285142379653        2.60400524146437
C            2.69946021066467        4.69318313354612        3.04690611318543
C            1.73734772710209        3.81442437923860        2.58212681407909
C            0.62151619447233        2.07743151789648       -0.09788406204395
C            0.82266866747802        3.28197805942219       -0.77373013089896
C            0.29625083973354        3.47308318422690       -2.03565374618168
C           -0.44722010932503        2.47370421507600       -2.63967899225569
C           -0.64819092920113        1.27613740780214       -1.97560414747243
C           -0.12208890847087        1.06328486793781       -0.71239261215192
C           -5.61010156181724       -0.03301903806594       -0.53796677697315
C           -6.94457343941241        0.25771536155694       -0.41149934228903
H          -13.11923406749936        2.00462338265525       -4.47944726797717
H          -13.44899576841727        3.71445139847264       -4.77592543989485
H          -11.78847376445077        3.12663738576788       -4.75108525938498
H          -14.16317385706082        3.41391955523207       -1.16725859801236
H          -14.76178863540611        3.95570728952145       -2.73115968094029
H          -14.57984229046909        2.23305613627893       -2.42260322886527
H          -12.85255697434819        5.44291929555150       -2.97536747965050
H          -11.19544567234038        4.84604498810412       -2.95375147328464
H          -12.12673722074005        4.90085821580352       -1.45909938655038
H          -10.09541405761351        2.92472386395806       -3.29444418887662
H           -8.49390944602814        1.36996012405724       -2.33074354722858
H          -13.23161338367477        1.35914458008409       -0.82823831026643
H          -13.46413681031814       -0.53565375477512        1.00975352754335
H          -15.07377509004298       -2.04742468058550        1.59030285390887
H          -14.74124783330339       -0.84492436655243        2.85020369066688
H          -15.54896744729712       -2.35413884626422        3.25701661558110
H          -12.18336455238675       -2.87751960703422        4.67610614765106
H          -13.90514814442989       -2.74013832844474        5.02303485619700
H          -12.96951609962010       -1.30278668095968        4.60017698359335
H          -14.40096543303317       -4.49643840388952        3.21870389715645
H          -12.67777142477930       -4.62715257846849        2.87826792096605
H          -13.80180657110342       -4.24539415621677        1.57625765281060
H          -10.84994299055351       -3.33780977423961        2.92879274030183
H           -8.95718226389810       -2.53728589063120        1.62950058139070
H           -8.20083683910051       -2.87868605513788       -0.62463672896140
H           -5.83436019351783       -3.40164643844920       -0.83769103853915
H           -4.05852677832645       -3.49282625674480       -1.94585436648190
H           -1.69816513452486       -4.02337414709882       -2.22747672444111
H           -3.04638116095465        0.11469603317652        0.19160813376498
H            2.58643877142504       -0.08543760604528        0.17594448137712
H            4.39153924491400       -0.56475466138400        1.13620686706936
H            6.75945566574545       -0.04533562339503        1.34159588323885
H            7.41343938010082        1.80701261787351       -0.01540093804364
H            8.71317171939691        3.81883236194907        0.41705160072377
H           11.09221874370047        4.03199278240044        2.79623626030384
H            9.83228161058385        4.95802588564369        1.98404369269974
H           11.42723017152734        5.66736661335260        2.21921409727427
H           10.00308802481141        5.39223167638832       -0.53026975983301
H           11.37823273625209        4.76125656624116       -1.43248946314510
H           11.59943798276042        6.10249585681933       -0.30464512809317
H           13.36069773560180        4.94836057456920        0.93409804556132
H           13.28549117590995        3.62131857719996       -0.21861409042548
H           13.16307506292640        3.30075590469961        1.52093079135651
H           12.37324105164609        1.59925686806359        0.21727805403260
H           13.06986621099813       -0.91941904910964       -0.22770540220680
H           14.56059812508122       -4.83385258450230       -2.19491390532612
H           13.57501191491648       -3.53737107332268       -2.87860912437616
H           12.80769373670765       -4.99628959167583       -2.25643190527995
H           13.48092205601625       -4.24951960350770        1.36167704290731
H           14.50862483130069       -5.25553559549940        0.33606084561649
H           12.75639064310044       -5.42188977149773        0.26430670109552
H           14.78936009794213       -1.96122354570042       -1.30309652560523
H           15.66185014100846       -3.33269791072979       -0.62834360554322
H           14.76221942569573       -2.26600409384351        0.44345439817866
H           11.03684007338436       -4.62603376461201       -0.93130561024995
H            8.87455369003416       -3.52304516590250       -0.79600435503030
H            7.55836141223606       -2.18833166712084       -2.27144141796018
H            5.18949347807356       -2.71393259892182       -2.49307923110540
H            3.35078769611430       -3.73328390809278       -1.97658991320821
H            0.95524331059229       -4.11004043559188       -2.24519441296933
H           -1.28022172894876       -1.89001681439077        1.86865892822101
H           -0.90496416920623       -1.81502267581690        4.30386311602133
H            0.53597653867314       -0.04322919989069        5.26010671550282
H            1.50176745098389        1.67032721392221        3.81445895346210
H            3.66146102949167        1.97678388293859        0.49261954220429
H            5.37185786958207        3.53773832244335        1.33440357640270
H            4.75613440824701        5.27914910869475        2.97131292962244
H            2.42503161647854        5.46132944449927        3.75464888819299
H            0.71266401030650        3.89338183078321        2.91489036026279
H            1.38982720516261        4.07099942771856       -0.30280710149201
H            0.46457599875942        4.41030411761999       -2.54507012838585
H           -0.86171477362768        2.62111994172237       -3.62518262780803
H           -1.21436795255511        0.48683309879899       -2.44738924544063
H           -4.89978247681638        0.77926726423958       -0.53344200353097
H           -7.26687178503007        1.27912219076668       -0.27087715113551
