161
 energy: -224.868469718691 gnorm: 0.000087072999 xtb: 6.7.1 (edcfbbe)
C          -12.98234218407360        1.93166933297510       -4.62690444518986
C          -12.89498843784610        2.54251981588325       -3.22091834556992
C          -14.30391214566654        2.55693927133074       -2.62142756665493
C          -12.40329543201410        3.99395143920669       -3.31398729088796
C          -11.91235647339703        1.73398246350584       -2.38683756683718
C          -10.58083012121857        1.63923296880865       -2.81445776254306
C           -9.62025237975177        0.92840755914009       -2.12482504002099
C           -9.99896217808666        0.28985159891562       -0.95330277664063
C          -11.33865975820635        0.35037683340925       -0.51240389877774
C          -12.28410324356569        1.07291155501910       -1.22629888175388
C          -11.40976328057752       -0.44918835396517        0.68050877643451
C          -12.43835539471129       -0.74267497904871        1.56450511365981
C          -12.18836731939181       -1.54038680927567        2.67050448537350
C          -13.26640060445652       -1.90255714480397        3.68126358330089
C          -14.63229461403105       -1.31028297453443        3.32322942234695
C          -12.86225394877357       -1.36576071412682        5.06186293269356
C          -13.41091752853903       -3.42994161823041        3.73890426206202
C          -10.88618258032026       -2.01902687208275        2.87062763165001
C           -9.84483957803055       -1.74297432124004        2.00870771327456
C          -10.11234434662323       -0.96318385580902        0.89333450831535
N           -9.26678010197470       -0.50847176092660       -0.09809011234927
C           -7.90838531619265       -0.80938876793445       -0.21870527751855
C           -7.46486743640892       -2.13320068366542       -0.14137939105924
C           -6.13160492514532       -2.42916715278183       -0.27529379807147
C           -5.16642064685638       -1.41934446354740       -0.46875289743453
C           -3.76893709033565       -1.72722587358608       -0.60281373681136
C           -3.33848012706426       -2.97986493637832       -1.11934094924376
C           -2.02098472047519       -3.29048812576743       -1.28622351054629
C           -1.03305029118466       -2.35366685551244       -0.90701331485034
C           -1.45701008674842       -1.09624305211160       -0.36618384883803
C           -2.77141046855164       -0.78377606651316       -0.23278692582395
C           -0.25481013132346       -0.25146975225652       -0.01108461621264
C            0.88769982256344       -1.18274437310973       -0.39559309559355
C            2.21822053298164       -0.96670996366119       -0.26690264186155
C            3.14802039205654       -1.94136522262176       -0.72008515809790
C            4.55604681650418       -1.69840516610423       -0.59952140288830
C            5.06403885011612       -0.85098802365574        0.41026957581783
C            6.40176768601941       -0.57066543721401        0.50901704052177
C            7.31188056001029       -1.11214308756111       -0.40645429597130
N            8.66613413909064       -0.79169722361583       -0.32460753327955
C            9.18179542674809        0.47461199388497       -0.12700042192146
C            8.53990970294886        1.70122289530498       -0.03663960192367
C            9.31509480049162        2.82811966617969        0.14474685312103
C           10.71353036854947        2.78553588760179        0.22932778117084
C           11.47612334485051        4.08307806927633        0.45198557221482
C           11.00860180962359        4.72087163787540        1.76822774274866
C           11.19921056577686        5.03924844687230       -0.71681903687321
C           12.98942248677245        3.86802738681153        0.54210693484054
C           11.34680364908611        1.55984180729049        0.09507497379522
C           10.59135370672404        0.41032381817154       -0.08785829936648
C           10.94007402487622       -0.97132772976333       -0.27619410889234
C           12.15437580468207       -1.64110349245870       -0.32376990259973
C           12.17520169106000       -3.01586549098827       -0.49974838157763
C           13.46821740342683       -3.81333072196061       -0.58103147562489
C           14.71313229850533       -2.92896408265542       -0.46826095718697
C           13.52348655507491       -4.54149287385204       -1.93171242267490
C           13.50499181289791       -4.83600176021522        0.56338707082155
C           10.95342478482581       -3.69587063372120       -0.59704278096589
C            9.73215103978034       -3.05535361411294       -0.55226442581489
C            9.72408443570044       -1.67494255948166       -0.41603617820014
C            6.83291514011527       -1.97243703689675       -1.40149902049709
C            5.49530677016425       -2.26512953575410       -1.48701056579597
C            2.62714248849590       -3.13387970750348       -1.29420283139946
C            1.28800122479702       -3.37490643095676       -1.38917563873273
C            0.36823677637863       -2.39852878517503       -0.93924002279611
C           -0.13391229845469        0.05817180474990        1.46012554350787
C           -0.66123937783681       -0.80348261009727        2.40691819819831
C           -0.42147006007635       -0.61526438862803        3.75682396546345
C            0.38506757780976        0.43314735907978        4.16371968059984
C            0.91198823055091        1.30918791924762        3.23529867311165
C            0.63904023227231        1.15157606368975        1.87565112528714
N            1.12791778442409        2.04958139314545        0.93527493360960
C            2.09367036732134        3.02368795293818        1.30363289703383
C            3.40173638019067        2.88066767742773        0.85587389784242
C            4.35946850107499        3.81348741617676        1.21071257889818
C            4.01754276204974        4.89259827724288        2.00816506188720
C            2.71151897797939        5.04366440730914        2.44416396038245
C            1.74819353060664        4.11506239664682        2.09274238367362
C            0.60664288741374        2.08215994987592       -0.35115956015633
C            0.79710545257224        3.20270219748489       -1.16123674540134
C            0.25031045599619        3.25174388823677       -2.42802554853504
C           -0.50292109663612        2.19224060625965       -2.90394522122138
C           -0.69221256164290        1.07669084219799       -2.10685572145672
C           -0.14548034592349        1.00601468137492       -0.83651457976163
C           -5.63434804606076       -0.09021015777622       -0.52856409983444
C           -6.96959648859729        0.20718876968350       -0.41972417538627
H          -13.30670965562159        0.89482440927055       -4.56605022512715
H          -13.69938720080203        2.48322938912131       -5.23155434604248
H          -12.02083172064576        1.95776988494487       -5.13188069555390
H          -14.30144496741561        2.99739918803526       -1.62702742867069
H          -14.95971427393621        3.15440542293063       -3.25174500266352
H          -14.71634863164879        1.55211782900650       -2.56667531016183
H          -13.10383673724228        4.59051190604241       -3.89478704361166
H          -11.42929992281519        4.05398098126630       -3.79134144303677
H          -12.32243059732641        4.42728485352897       -2.31917368432738
H          -10.28151700957378        2.13470151066334       -3.72542907567998
H           -8.60955731679680        0.86286260176140       -2.49837624356057
H          -13.29763689275003        1.09743740303312       -0.86218894418524
H          -13.41620253411184       -0.33351945228082        1.37257278141170
H          -14.97547710439087       -1.67405766421464        2.35745752367378
H          -14.59468285394072       -0.22355009987302        3.30346957081678
H          -15.36343576680176       -1.60670028523277        4.07283387174163
H          -11.92918681347120       -1.80609178109024        5.40195927406957
H          -13.63368143547884       -1.59551740636656        5.79403717493548
H          -12.73426553769214       -0.28594711339481        5.02187234687342
H          -14.19020064267158       -3.70635980593711        4.44620566296772
H          -12.48524431397336       -3.90531757640809        4.05083183715274
H          -13.68013961505089       -3.81862423433583        2.75890302443098
H          -10.67358083423084       -2.62690511869547        3.73678157934687
H           -8.85089789301811       -2.11337668985914        2.20931133775327
H           -8.18681996698305       -2.92404425871022        0.00163442777769
H           -5.81602272976554       -3.45855789245920       -0.20005109174450
H           -4.08752364357442       -3.69088567147162       -1.43516978805329
H           -1.72587322763468       -4.24034648147745       -1.70722872028381
H           -3.05987482372980        0.16372807797343        0.19815561398777
H            2.58196868002270       -0.03611451588409        0.13815458056408
H            4.39302781043335       -0.45507720824439        1.15774828947863
H            6.76912373215770        0.04497069228703        1.31709300644127
H            7.46657855831130        1.78037817108138       -0.12032459724510
H            8.81067411273565        3.77971632009689        0.21853867614122
H           11.18001719850814        4.03787632952349        2.59778244413870
H            9.94971381464333        4.96203786835580        1.73946347560918
H           11.56114454419911        5.63900189792397        1.95699657139527
H           10.14274665945630        5.28176100507866       -0.79025951944714
H           11.50991950853799        4.58461434446196       -1.65524656463742
H           11.75270770741793        5.96627964061088       -0.58196142258258
H           13.48158297277889        4.82309667315468        0.71513092125393
H           13.38181791736906        3.45215014174623       -0.38296114336202
H           13.24157454205276        3.20597988526976        1.36733050842156
H           12.41998114859750        1.47227346940315        0.12520527078050
H           13.06232533657079       -1.07113322948491       -0.21804916524336
H           15.60516182350692       -3.54780437482560       -0.54316637257979
H           14.74227044380350       -2.41401914401585        0.48921682101705
H           14.74543532743753       -2.19518640617397       -1.27037809861244
H           12.69652301791517       -5.23725070679950       -2.04223146048165
H           14.45259633956261       -5.10107736497377       -2.01842745565652
H           13.47552665834646       -3.82303854450051       -2.74753115676989
H           13.44339923437044       -4.32751467080545        1.52337765011180
H           14.43396987447254       -5.40156328305693        0.53073091367545
H           12.67798010108800       -5.53724672677492        0.49654589759385
H           10.95335077933260       -4.76941905206054       -0.70826280044206
H            8.81461658542591       -3.62091963283845       -0.60764362257009
H            7.52316786660684       -2.37340485800527       -2.12900249017772
H            5.14882872783831       -2.89906274600957       -2.28881977801192
H            3.32245678348756       -3.89247081134733       -1.62284243038749
H            0.92279090897685       -4.30356885455412       -1.80276135489237
H           -1.25524154038459       -1.64257377747144        2.07631361146961
H           -0.84104458936599       -1.29603524793327        4.48141363061122
H            0.60808566595020        0.57405861297395        5.21096949217826
H            1.54552793771694        2.11717071945988        3.56752038851647
H            3.66330409047757        2.04285153713577        0.22601771495251
H            5.37563721321898        3.69516889891133        0.86504667643072
H            4.76662101303619        5.61856913855622        2.28648556942762
H            2.44013202279771        5.89003732698377        3.05754923892439
H            0.72543657734916        4.23126554189760        2.42049014867497
H            1.37209420026233        4.03845796456027       -0.79125318782457
H            0.41044633980848        4.12544883392693       -3.04220419272018
H           -0.93368021533641        2.22912287458722       -3.89281006767528
H           -1.26531052556335        0.23999329343776       -2.47792179421712
H           -4.93221149103951        0.71241640893230       -0.69533732157931
H           -7.30465488828752        1.23320240757295       -0.46632367679238
