  161
       -224.95122475
 C        -13.3217872978        2.0956287525       -4.4054654012
 C        -13.1546936049        2.5898969640       -2.9617762247
 C        -14.5225529227        2.5225107259       -2.2767775925
 C        -12.6953802277        4.0549463219       -2.9633721993
 C        -12.1052312407        1.7432368564       -2.2560579067
 C        -10.8059748407        1.7001367657       -2.7796847860
 C         -9.7846864373        0.9781210486       -2.1966632794
 C        -10.0636466562        0.2762045609       -1.0339601747
 C        -11.3717375304        0.2756321826       -0.5056673416
 C        -12.3812598662        1.0095477249       -1.1145654463
 C        -11.3443507476       -0.5759431007        0.6509011998
 C        -12.3128296315       -0.9481702560        1.5742245828
 C        -11.9755598117       -1.7845646754        2.6250467363
 C        -12.9852843642       -2.2445834200        3.6667207979
 C        -14.3919785800       -1.7004218112        3.4027301741
 C        -12.5386721425       -1.7576912330        5.0525102706
 C        -13.0593465748       -3.7781340625        3.6531225016
 C        -10.6462152840       -2.2139728978        2.7367525130
 C         -9.6644091105       -1.8599486000        1.8343405160
 C        -10.0212542910       -1.0506902817        0.7664883133
 N         -9.2530794045       -0.5311757874       -0.2587372633
 C         -7.8934590438       -0.7827242357       -0.4666491239
 C         -7.4048089181       -2.0859417876       -0.4103033461
 C         -6.0600047715       -2.3327320077       -0.5910598340
 C         -5.1654270010       -1.2946010958       -0.8493068421
 C         -3.7343551621       -1.5665715759       -1.0316540403
 C         -3.3136639297       -2.7242637275       -1.6898144688
 C         -1.9726532093       -3.0214480054       -1.8482265604
 C         -1.0289527143       -2.1412181277       -1.3438640833
 C         -1.4415872024       -0.9633693033       -0.7001445674
 C         -2.7767312931       -0.6750203737       -0.5388356062
 C         -0.2506808490       -0.1475212062       -0.2581462858
 C          0.8995478538       -1.0356669198       -0.7055662475
 C          2.2446903009       -0.8202578423       -0.5420602336
 C          3.1550342998       -1.7743826708       -1.0036977498
 C          4.5919285315       -1.5444663862       -0.8158587690
 C          5.0585370149       -0.9022308842        0.3320105136
 C          6.4014550559       -0.6426367958        0.5059416640
 C          7.3197086561       -1.0197805274       -0.4705973963
 N          8.6787015517       -0.7320300352       -0.3047927486
 C          9.2048570977        0.5029556178        0.0178986425
 C          8.5737149260        1.7236029545        0.2006141137
 C          9.3586048149        2.8222101380        0.4842317772
 C         10.7549053840        2.7548762301        0.5860443682
 C         11.5292571077        4.0258789970        0.9046801460
 C         11.0634096044        4.5728451308        2.2615731822
 C         11.2667471220        5.0660977846       -0.1937111896
 C         13.0402216295        3.7903912954        0.9823220045
 C         11.3753148007        1.5336978456        0.3818178783
 C         10.6102654988        0.4105519648        0.0951658676
 C         10.9435302558       -0.9589493012       -0.1844547610
 C         12.1458567644       -1.6531631151       -0.2239298794
 C         12.1476098597       -3.0103684271       -0.4997212376
 C         13.4253389924       -3.8356777319       -0.5532704486
 C         14.6797667580       -2.9950884370       -0.2990456331
 C         13.5565369503       -4.4759411745       -1.9423763773
 C         13.3614434360       -4.9311075335        0.5205566440
 C         10.9205843670       -3.6499617923       -0.7235119659
 C          9.7116364005       -2.9857985210       -0.6919174009
 C          9.7244527728       -1.6242934195       -0.4320720972
 C          6.8680534119       -1.6762675601       -1.6122680887
 C          5.5225384801       -1.9345638662       -1.7779348121
 C          2.6734967527       -2.9238054725       -1.6322128601
 C          1.3176133458       -3.1399183981       -1.8045447906
 C          0.4215165938       -2.1914473758       -1.3368263662
 C         -0.1566787143        0.0370677588        1.2385039075
 C         -0.7052466412       -0.8964128737        2.1013953607
 C         -0.4972145037       -0.8151714019        3.4672632027
 C          0.2962859429        0.1986669167        3.9730944692
 C          0.8426543434        1.1450897846        3.1284147442
 C          0.6047409968        1.0933055237        1.7547434913
 N          1.1174230203        2.0599062294        0.8980925042
 C          2.0526529369        3.0179600813        1.3750524919
 C          3.3827332124        2.9141661767        0.9867250424
 C          4.3107613438        3.8320322002        1.4453181354
 C          3.9166739392        4.8562684644        2.2894841690
 C          2.5892081729        4.9674472715        2.6693918246
 C          1.6559503923        4.0539284324        2.2132355853
 C          0.5979400211        2.2116643099       -0.3810530021
 C          0.7861695779        3.4010754300       -1.0855483737
 C          0.2420584858        3.5642973779       -2.3440557375
 C         -0.5077258522        2.5521864706       -2.9166373092
 C         -0.6932118669        1.3673124238       -2.2257304174
 C         -0.1466148985        1.1825570593       -0.9670150304
 C         -5.6667402474        0.0046549994       -0.9184422838
 C         -7.0085168823        0.2615704837       -0.7238756799
 H        -13.6209429274        1.0495035250       -4.4117050878
 H        -14.0877856293        2.6773963107       -4.9144827932
 H        -12.3966114389        2.1878188757       -4.9673091545
 H        -14.4665865888        2.8886834500       -1.2542791041
 H        -15.2305396459        3.1469201481       -2.8183641702
 H        -14.9075719673        1.5053631748       -2.2717146140
 H        -13.4394043757        4.6819073851       -3.4507841888
 H        -11.7521525586        4.1740122656       -3.4894519343
 H        -12.5622690330        4.4071579081       -1.9424478053
 H        -10.5805022599        2.2500708203       -3.6808267410
 H         -8.8031300595        0.9569494768       -2.6459275513
 H        -13.3667917042        0.9880494391       -0.6801615157
 H        -13.3137889900       -0.5694053161        1.4513726029
 H        -14.7641553322       -2.0318661740        2.4360168334
 H        -14.4038862217       -0.6134790337        3.4368097714
 H        -15.0724737726       -2.0674382102        4.1687375562
 H        -11.5708913015       -2.1692611305        5.3251501865
 H        -13.2617686140       -2.0596204604        5.8075602297
 H        -12.4617035327       -0.6723274533        5.0618625726
 H        -13.7905786556       -4.1253481099        4.3804609117
 H        -12.0994373417       -4.2244825992        3.8971973872
 H        -13.3580035272       -4.1305307541        2.6678668989
 H        -10.3626873608       -2.8477421780        3.5632984061
 H         -8.6477993210       -2.1966078502        1.9714929414
 H         -8.0881712542       -2.9030331036       -0.2339609457
 H         -5.6952115617       -3.3464883932       -0.5166895554
 H         -4.0548638664       -3.3945133298       -2.0998242360
 H         -1.6689013484       -3.9236755386       -2.3581919753
 H         -3.0805671668        0.2188414205       -0.0138804791
 H          2.6004256056        0.0829764010       -0.0728593673
 H          4.3631787707       -0.6283514061        1.1121622198
 H          6.7516550575       -0.1601437016        1.4064881470
 H          7.5016226366        1.8188702860        0.1111335222
 H          8.8640564977        3.7712732447        0.6264688294
 H         11.2285768958        3.8320723898        3.0413465686
 H         10.0058789882        4.8216168863        2.2475805965
 H         11.6210142525        5.4720845158        2.5155875296
 H         10.2134833621        5.3257426534       -0.2523726575
 H         11.5749119750        4.6754479085       -1.1613459680
 H         11.8304831913        5.9748949677        0.0074678700
 H         13.5417268179        4.7273889864        1.2168760016
 H         13.4292245008        3.4306451574        0.0325217948
 H         13.2847752795        3.0740769190        1.7633156984
 H         12.4461820958        1.4280627719        0.4324954291
 H         13.0582543488       -1.1143777089       -0.0296567428
 H         15.5606750892       -3.6315731257       -0.3566901730
 H         14.6556102337       -2.5456544696        0.6909447654
 H         14.7827201835       -2.2106419060       -1.0452699995
 H         12.7226865620       -5.1389805429       -2.1548755729
 H         14.4754507713       -5.0555643721       -2.0030092351
 H         13.5829034684       -3.7051402449       -2.7098721758
 H         13.2459583800       -4.4840671277        1.5058129066
 H         14.2772611876       -5.5187019250        0.5128459293
 H         12.5246664632       -5.6033000593        0.3525608446
 H         10.9060542057       -4.7103237933       -0.9250069215
 H          8.7857718426       -3.5182523265       -0.8515017416
 H          7.5761440132       -1.9596040637       -2.3767948605
 H          5.1837574722       -2.4160575511       -2.6831949601
 H          3.3747682002       -3.6730382301       -1.9695604993
 H          0.9664604224       -4.0393953293       -2.2885421519
 H         -1.2901097772       -1.7080919015        1.6942636226
 H         -0.9320714616       -1.5512399421        4.1256662904
 H          0.4932691418        0.2585953940        5.0332468832
 H          1.4644228232        1.9268052332        3.5371216152
 H          3.6861537039        2.1184747990        0.3217912045
 H          5.3441259125        3.7450331694        1.1440175173
 H          4.6421981370        5.5706239888        2.6484575858
 H          2.2782181976        5.7705589345        3.3210546256
 H          0.6173375009        4.1378988423        2.4985039893
 H          1.3600870097        4.2000643766       -0.6404850091
 H          0.4018224032        4.4908291330       -2.8753181232
 H         -0.9370707489        2.6777488235       -3.8987322108
 H         -1.2615421788        0.5665410192       -2.6756614035
 H         -4.9976699294        0.8242174667       -1.1358260176
 H         -7.3768951573        1.2760820658       -0.7541898794
