161
 energy: -224.949920688658 gnorm: 0.000058840276 xtb: 6.7.1 (edcfbbe)
C          -11.86896511421638        2.21149132448579        5.48315161418504
C          -12.50436300161082        1.68934961684732        4.19163561498706
C          -13.56925045293447        2.70046197387818        3.74339259240473
C          -13.16757681072127        0.33972727091616        4.50163490907680
C          -11.49489445113846        1.50021048299628        3.06767112482915
C          -10.13870013906113        1.80167593176674        3.21845021749124
C           -9.21755061084811        1.62640658391465        2.20183434262898
C           -9.66347757391676        1.12336481583395        0.99146665667236
C          -11.03315019293485        0.83605528564226        0.80427173143107
C          -11.93413679667206        1.02167417924317        1.84022280693370
C          -11.17361750863258        0.39091026660997       -0.55526797200165
C          -12.25520769524545       -0.04058301963584       -1.30568183285057
C          -12.07372367221161       -0.43861775361659       -2.62370971549051
C          -13.28080420188277       -0.89970030566016       -3.42896888921489
C          -12.92353808708070       -1.30405258817133       -4.86184253554414
C          -14.30135104744289        0.24529553015384       -3.49946501435800
C          -13.91187621507954       -2.11565710813697       -2.73579520271058
C          -10.78235544093182       -0.40833573015774       -3.15704059211581
C           -9.68481788751183        0.01766893622716       -2.43120294044513
C           -9.88330385429236        0.43764716050503       -1.12692804521774
N           -8.97672210237825        0.87948299585269       -0.18270879188612
C           -7.60516424778988        1.06994086559628       -0.38205374953374
C           -6.68430782726555        0.55522844130605        0.52706272815917
C           -5.33331791808269        0.76327893093466        0.33993908871642
C           -4.86396820616465        1.48433601712892       -0.75685246975618
C           -3.42585002730767        1.72558352723746       -0.92861923158511
C           -2.96820763768699        2.97645333285876       -1.34535572346495
C           -1.61802387327964        3.24720474337177       -1.47356318531168
C           -0.70669376246721        2.24478197831181       -1.18346499263640
C           -1.16066231084734        0.97982306357577       -0.78144021921694
C           -2.50221473848277        0.71444059446054       -0.65053076476100
C            0.00497207358592        0.04496935325781       -0.52385142020832
C            1.18293156617772        0.96278147229960       -0.78862836739232
C            2.52114299012663        0.67741343594790       -0.66661955584960
C            3.45806692507687        1.67470329676447       -0.95047274009058
C            4.89303435295509        1.41082693165494       -0.79002653347202
C            5.35915976501636        0.67397690678501        0.29786415374494
C            6.70840064045741        0.45037299876988        0.47833996689820
C            7.63004241594570        0.94688290169613       -0.44025160388364
N            8.99945676380498        0.72988604917233       -0.25656606765107
C            9.98631502953855        1.69528029737220       -0.31703643107944
C            9.89268324269437        3.06082185261633       -0.52550877233521
C           11.05585311697392        3.80855471382727       -0.50524103761173
C           12.31264196672256        3.24222195592811       -0.27478339550151
C           13.59120638651950        4.06866723595069       -0.25762948460800
C           14.54962073755951        3.53132621659984       -1.33003152329154
C           14.24369915020809        3.95205432560611        1.12729404492111
C           13.34657095942885        5.55293770195581       -0.54295129592362
C           12.39020609067690        1.87582547831171       -0.04046471876384
C           11.24079074789627        1.10217299256643       -0.05552662504197
C           10.99176589616402       -0.29515402508375        0.16908845262646
C           11.82315299640832       -1.37089593204936        0.45094556479517
C           11.28272819082340       -2.63749831741627        0.59883680775274
C           12.13099839300025       -3.86018594079277        0.91800393670601
C           13.61621855089226       -3.52153032801799        1.07305461383612
C           11.99240501386284       -4.88226607129926       -0.21908699650680
C           11.64547147046920       -4.47946007956313        2.23632779460755
C            9.89982953311611       -2.79702161006608        0.43801883342514
C            9.05041601847993       -1.74625812827277        0.15756919133635
C            9.59919872585028       -0.47862447491112        0.04024673673563
C            7.17261101052317        1.66846006101543       -1.54019010554604
C            5.82288903673781        1.90242824379896       -1.70461637340917
C            3.01611899957391        2.93240819967199       -1.36377416717849
C            1.66935424541808        3.22305683215474       -1.48357967079130
C            0.74511276314790        2.23417997124471       -1.18786837263435
C           -0.00392999952182       -1.09752374826162       -1.51182399027749
C           -0.01963693506150       -0.80677880563885       -2.86739018068948
C           -0.02074265601887       -1.81082135563041       -3.81771982557362
C           -0.00302909539933       -3.13203085460257       -3.40512377409592
C            0.01260604592539       -3.44078450207711       -2.06031338666754
C            0.00969067279967       -2.43092181977671       -1.09432667133965
N            0.02428118452246       -2.75435778317404        0.25283594875616
C            0.03772333491862       -4.12607412702860        0.63391271153170
C            1.24674913300397       -4.76895338333590        0.86581961222357
C            1.25677286151418       -6.10162371347782        1.23759299467332
C            0.06495217450909       -6.79318569570639        1.37721503528473
C           -1.14049515480118       -6.15188206088854        1.14496634240250
C           -1.15773853425031       -4.81911781570497        0.77391184239718
C            0.01763208657894       -1.78318532663575        1.24030162708867
C            0.01694959223932       -2.14957814818067        2.58909224222892
C            0.01036408042506       -1.19062493002077        3.58145778009167
C            0.00282687520202        0.15428915457341        3.25315350089835
C            0.00065895725721        0.52365417917168        1.92079168616712
C            0.00742237190212       -0.42543804634115        0.90996154529832
C           -5.79234087945501        1.98382338012733       -1.66842833331537
C           -7.14528706852425        1.78312117374183       -1.48624613397633
H          -11.41401246928372        3.18737691661557        5.32998741150482
H          -12.63698786698512        2.31637969698448        6.24719328666463
H          -11.11650039245733        1.52076445184670        5.85675258482548
H          -14.10181243739962        2.35090754114858        2.86337570667609
H          -14.29406981674835        2.86104124805575        4.53900779026757
H          -13.10342205216819        3.65385830555381        3.50249604083110
H          -13.88474634637763        0.45051883535293        5.31252752975897
H          -12.41592607675452       -0.38742666294612        4.80209621695284
H          -13.69224044974292       -0.05263548316320        3.63507161886064
H           -9.77517024174668        2.19154060286065        4.15482517036957
H           -8.18146430501328        1.89003698294203        2.35344252381938
H          -12.97557574345184        0.79365251938097        1.67238763422837
H          -13.23167277886298       -0.06459293299501       -0.84667863953490
H          -12.22525266369762       -2.13779657508020       -4.87152331763819
H          -12.49127010658777       -0.46910925408160       -5.40852355950311
H          -13.82546383912875       -1.61637961416950       -5.38491419225651
H          -14.64104154863987        0.53488808748192       -2.50903287925970
H          -15.16880813425792       -0.05912163794820       -4.08170546443664
H          -13.85519552941903        1.11686724395149       -3.97413719493511
H          -14.76855191110137       -2.47054172005882       -3.30528352866692
H          -14.24884044118188       -1.86949316579731       -1.73277576404981
H          -13.18686861264530       -2.92370024884181       -2.66221529670050
H          -10.61173351722512       -0.72903454030523       -4.17144579545672
H           -8.70023264907664        0.00812495291958       -2.87457033683755
H           -7.03571482311755       -0.01480055428595        1.37419344929185
H           -4.62978944810304        0.37724739979820        1.06317539066757
H           -3.68722280113622        3.75818083612125       -1.54308093468333
H           -1.28320497291307        4.22593074274451       -1.78428679589607
H           -2.84113904829476       -0.26639457308839       -0.34967034821122
H            2.84722757886924       -0.30867419458369       -0.36884013582976
H            4.65581906651932        0.30381340379047        1.02953107083944
H            7.06001508105684       -0.09090316755609        1.34405044995275
H            8.93885460560330        3.54041794696698       -0.68712715599827
H           10.96634641321051        4.86932396495626       -0.67162681372884
H           15.46650392570758        4.11724675464113       -1.34261457164747
H           14.08626070662000        3.59363139641573       -2.31259190050061
H           14.81181837416287        2.49374441178799       -1.14345838240587
H           15.15144314725394        4.55084507296426        1.16710478807167
H           14.50473857532119        2.92273114903975        1.35661523703456
H           13.56028785903539        4.30874964518394        1.89523747489900
H           14.29560158061900        6.08555084238746       -0.52615903961830
H           12.70078726527735        5.99627168840591        0.21151577657803
H           12.89987287844805        5.69480630639133       -1.52438941906523
H           13.33691879174002        1.39858821328669        0.16118436101913
H           12.88146329711493       -1.19303633786414        0.54475555839052
H           14.02204305936032       -3.11028980693063        0.15165488839705
H           14.17195476905066       -4.42692397140323        1.30951435137765
H           13.77267662613789       -2.81079657793180        1.88128521669525
H           10.96325653652540       -5.21053038109258       -0.33468946054753
H           12.60777239382207       -5.75634225189404       -0.01542313084360
H           12.31692522644577       -4.44265867928122       -1.16003782274627
H           10.61030275931497       -4.80160466055371        2.16639714057597
H           11.72223260255324       -3.75274549699440        3.04256869106733
H           12.25437029786879       -5.34442372227465        2.49170939735679
H            9.46666263676325       -3.78143074113132        0.53142520042695
H            7.99255824975312       -1.91571228128681        0.02277459794454
H            7.88147574853160        2.03034344747053       -2.26991680925090
H            5.48024364922446        2.45088930084906       -2.56974267371422
H            3.74513517024186        3.70364258710751       -1.56589812556351
H            1.34706535209285        4.20664414530806       -1.79221523238302
H           -0.03039391926610        0.22821442402938       -3.17757962305816
H           -0.03344493741099       -1.56432001185182       -4.86816767335635
H           -0.00082718462872       -3.93015521079811       -4.13264973057664
H            0.02823692882899       -4.47465193121508       -1.74990111537489
H            2.16953921934811       -4.21917072880982        0.75341360257565
H            2.19691833076262       -6.60121754451903        1.41793003055150
H            0.07552888578165       -7.83314423275050        1.66713112226250
H           -2.07006155570678       -6.69050332392484        1.25349835419227
H           -2.09132845120267       -4.30840881262862        0.58940709243744
H            0.02073261557800       -3.19541326777319        2.85691840082052
H            0.01057091101945       -1.49870784752657        4.61658530668575
H           -0.00213331751006        0.90762141818655        4.02574757025377
H           -0.00645596657713        1.57004673917549        1.65082632478954
H           -5.44795005225553        2.52891376583522       -2.53499684664729
H           -7.85633511490376        2.19256752357791       -2.18821362006823
