  78
       -129.28519094
 N         -1.9110388874        0.9177597907        2.4805895275
 C         -1.1868781988        0.3234747572        1.8156275130
 C         -0.2743951035       -0.4099225743        1.0303002253
 C          1.0452268472       -0.0072927549        0.9711264953
 C          1.9882683540       -0.7365805341        0.2248847229
 C          3.3376812659       -0.3102784912        0.1564601883
 N          3.7264480776        0.8126212533        0.8064883558
 C          4.9758305002        1.1881320000        0.7230729894
 C          5.3992036386        2.4051411931        1.4056062130
 C          4.4791625745        3.1644498799        2.1294194852
 C          4.8862043885        4.3162834705        2.7715278741
 C          6.2103829855        4.7238692625        2.7004320709
 C          7.1288271714        3.9734289699        1.9824488635
 C          6.7292856312        2.8200501295        1.3372196411
 N          5.9002591718        0.4955120555        0.0313750032
 C          5.4791277617       -0.6157351698       -0.5978176697
 C          6.4591411559       -1.3873188913       -1.3547782532
 C          6.0738149583       -2.5416571597       -2.0367622357
 C          7.0062066783       -3.2678530752       -2.7495923018
 C          8.3294822531       -2.8537709432       -2.7909054376
 C          8.7180740530       -1.7073574535       -2.1151594376
 C          7.7908478576       -0.9755929681       -1.3999908371
 N          4.2377133452       -1.0253224360       -0.5620614752
 C          1.5532247217       -1.9046125454       -0.4537690570
 C          0.2449292562       -2.3055431884       -0.3932943603
 C         -0.6973095240       -1.5709012395        0.3333988426
 N         -2.0326722570       -1.9851583352        0.4086092328
 C         -2.4512243966       -3.1875272037        0.9445204666
 C         -1.6924524144       -4.2635697557        1.3792208169
 C         -2.3664788032       -5.3585521175        1.8894936768
 C         -3.7555741678       -5.3761714239        1.9739543609
 C         -4.5128880144       -4.2925349119        1.5620949734
 C         -3.8602571798       -3.1845317154        1.0446443405
 C         -4.3137294361       -1.9070488684        0.5529825570
 C         -5.6074765979       -1.3958346996        0.4800826532
 C         -5.7477523246       -0.1068524214       -0.0312006934
 C         -6.7525508166        0.8871834367       -0.3425503644
 C         -8.1302515388        0.9182736054       -0.1848573800
 C         -8.8255924661        2.0411167184       -0.5963614364
 C         -8.1664073337        3.1276475302       -1.1603292780
 C         -6.7908151359        3.1284506507       -1.3316256911
 C         -6.0851344250        2.0130070621       -0.9247872892
 N         -4.7289024726        1.7338788383       -0.9749580565
 C         -3.4810306551        2.1691764358       -1.3837930257
 C         -3.1065850140        3.3474182710       -2.0001992796
 C         -1.7745843077        3.5103593730       -2.3436317538
 C         -0.8425529516        2.5092835543       -2.0969734351
 C         -1.2040785765        1.3263427640       -1.4786079214
 C         -2.5236216647        1.1438906082       -1.0850223617
 C         -3.2381469463        0.0608823115       -0.4407186953
 C         -3.1253311603       -1.2091404407        0.1485398322
 C         -4.5583258344        0.4966336309       -0.4406638057
 H          1.3688655150        0.8739110994        1.5026355106
 H          3.4526163028        2.8351867111        2.1762474123
 H          4.1711945406        4.9011947432        3.3313249541
 H          6.5251860907        5.6259228168        3.2041169886
 H          8.1592152700        4.2920411439        1.9274102853
 H          7.4314020719        2.2240997664        0.7751621538
 H          5.0409110493       -2.8515255378       -1.9944769878
 H          6.7048050746       -4.1609641510       -3.2771673823
 H          9.0565128498       -3.4240835350       -3.3501834748
 H          9.7487368346       -1.3853942638       -2.1479777987
 H          8.0768609503       -0.0814367747       -0.8682368963
 H          2.2787279885       -2.4609761359       -1.0246490435
 H         -0.0864048326       -3.1830341185       -0.9296280622
 H         -0.6147815441       -4.2440506503        1.3281510032
 H         -1.8037432823       -6.2136050083        2.2319883482
 H         -4.2482075531       -6.2484901216        2.3761631036
 H         -5.5887462640       -4.3084581281        1.6452191337
 H         -6.4467719205       -1.9864359414        0.8112740750
 H         -8.6459981598        0.0772868576        0.2533310357
 H         -9.8980661984        2.0774678686       -0.4788552887
 H         -8.7366344160        3.9897133333       -1.4720598307
 H         -6.2888944985        3.9770226910       -1.7696406486
 H         -3.8313578878        4.1176378373       -2.2130749303
 H         -1.4589285050        4.4251184307       -2.8220267412
 H          0.1841775895        2.6561661596       -2.3962033427
 H         -0.4668867898        0.5566996839       -1.3190220425
