  78
       -129.36211503
 N         -1.9132971942        0.9011199946        2.3894149624
 C         -1.2086295501        0.3008427238        1.7118673374
 C         -0.2853873782       -0.4375509298        0.9366946838
 C          1.0384373635       -0.0130482458        0.8913352256
 C          1.9842319461       -0.7443293871        0.1843154551
 C          3.3736498277       -0.2841658390        0.1340818700
 N          3.6558827863        0.8812691161        0.7036006973
 C          4.9296849949        1.2646057613        0.6408144292
 C          5.2932226084        2.5394401040        1.2552499295
 C          4.3123679196        3.3417246209        1.8362353140
 C          4.6596238207        4.5443947872        2.4197389091
 C          5.9835115822        4.9559241713        2.4292238225
 C          6.9626601895        4.1621177357        1.8516935783
 C          6.6225731783        2.9584965330        1.2658515095
 N          5.8868464994        0.5531514136        0.0536675741
 C          5.5140564224       -0.5996742166       -0.4928734585
 C          6.5365387379       -1.4126308483       -1.1480074750
 C          6.2011894926       -2.6416150811       -1.7137119738
 C          7.1720003868       -3.4070097898       -2.3295668997
 C          8.4814329280       -2.9551501075       -2.3866814759
 C          8.8201424114       -1.7331786116       -1.8261243445
 C          7.8544705349       -0.9627718047       -1.2085542946
 N          4.2630895239       -1.0581018134       -0.4765644218
 C          1.6002403925       -1.9136258502       -0.4742385533
 C          0.2890710623       -2.3390505513       -0.4363059237
 C         -0.6736854797       -1.6087929461        0.2576105549
 N         -1.9962848688       -2.0399198959        0.2990095448
 C         -2.4131955875       -3.2654922469        0.7975936492
 C         -1.6597076932       -4.3615749209        1.1838033875
 C         -2.3337585055       -5.4642469231        1.6765756613
 C         -3.7205160845       -5.4719340890        1.7932193670
 C         -4.4707533844       -4.3688985067        1.4349362947
 C         -3.8168576772       -3.2503815579        0.9357093618
 C         -4.2758540703       -1.9555733791        0.5042338549
 C         -5.5778491176       -1.4445365848        0.4688675264
 C         -5.7286182726       -0.1470042139        0.0045899693
 C         -6.7407497190        0.8617002883       -0.2549357998
 C         -8.1120985762        0.8909657755       -0.0646443859
 C         -8.8147957921        2.0287469223       -0.4236150340
 C         -8.1665899800        3.1305522189       -0.9667866727
 C         -6.7955872143        3.1323323861       -1.1693471458
 C         -6.0848141533        2.0019382179       -0.8149949983
 N         -4.7296659691        1.7232996337       -0.9048799333
 C         -3.4926917540        2.1709734515       -1.3264799059
 C         -3.1338364198        3.3675846169       -1.9186190876
 C         -1.8120014565        3.5438441381       -2.2888459608
 C         -0.8746480970        2.5372571394       -2.0950614485
 C         -1.2217208683        1.3357761545       -1.5031933016
 C         -2.5285847627        1.1398953074       -1.0796718906
 C         -3.2294962747        0.0342081154       -0.4510800716
 C         -3.1046747682       -1.2424318753        0.1045411334
 C         -4.5492359039        0.4696248806       -0.4127446591
 H          1.3393894630        0.8848951256        1.4074193579
 H          3.2866730262        3.0079313667        1.8187345675
 H          3.8980736196        5.1645328076        2.8693341992
 H          6.2523713920        5.8961993243        2.8879652939
 H          7.9932238494        4.4852578207        1.8610627965
 H          7.3710859369        2.3273344996        0.8130525165
 H          5.1780769282       -2.9793059429       -1.6577189807
 H          6.9109829912       -4.3594550510       -2.7671270674
 H          9.2386211541       -3.5559067638       -2.8689632458
 H          9.8409941578       -1.3834397782       -1.8722404186
 H          8.0996448684       -0.0098811398       -0.7665756522
 H          2.3458197053       -2.4673982533       -1.0223265979
 H         -0.0142176581       -3.2295595319       -0.9659756405
 H         -0.5824385652       -4.3582607077        1.1154739272
 H         -1.7711403812       -6.3341766798        1.9805293779
 H         -4.2123896182       -6.3513958881        2.1808013539
 H         -5.5443391724       -4.3711105226        1.5448427730
 H         -6.4075412585       -2.0520774002        0.7935358038
 H         -8.6209772531        0.0381871275        0.3589735623
 H         -9.8842043565        2.0629722666       -0.2785349428
 H         -8.7406779464        4.0042033886       -1.2370762834
 H         -6.3005554859        3.9931300466       -1.5915139929
 H         -3.8658184269        4.1405680747       -2.0937753601
 H         -1.5088945180        4.4721199710       -2.7492401743
 H          0.1444540751        2.6927730184       -2.4163371313
 H         -0.4796831083        0.5606209174       -1.3956468999
