78
 energy: -129.343423708436 gnorm: 0.000068590752 xtb: 6.7.1 (edcfbbe)
N           -1.92211325810203        0.91045788984815        2.44597281103443
C           -1.18834012098498        0.32535153847803        1.78180473484922
C           -0.27096119830512       -0.39672115646259        0.99466599217001
C            1.04751591638351        0.01296553619925        0.94758150964798
C            2.00278924700065       -0.70629324461588        0.20781742863367
C            3.35354195588309       -0.27554467844305        0.15961728527928
N            3.72132380383434        0.85835331017312        0.80598380089729
C            4.97424928997772        1.23214813298491        0.73294824232470
C            5.38077358977778        2.46435415331668        1.40416752043212
C            4.44366454484787        3.23921068025115        2.08904723989513
C            4.83357377872433        4.40368200873495        2.72018573975193
C            6.15916207976188        4.81059301301389        2.67635082868875
C            7.09574544280765        4.04613548912357        1.99715713232873
C            6.71196398373999        2.88017841977964        1.36374721729590
N            5.91809033867848        0.53573550644831        0.07129552425110
C            5.50626270239442       -0.58733670126193       -0.54555073892650
C            6.50429557928193       -1.37500154632939       -1.26574018603061
C            6.14086783751193       -2.55791968346486       -1.91069105007672
C            7.08916841533028       -3.30040248583127       -2.58585984303153
C            8.40884619250737       -2.87443231071690       -2.62678488646858
C            8.77729073454623       -1.70012685498273       -1.98810315132938
C            7.83308414962701       -0.95266352188681       -1.31133986458516
N            4.26423342084082       -1.00283825089368       -0.53394303083517
C            1.57605490524573       -1.87170114448102       -0.48416274176582
C            0.26907110952791       -2.27897657464859       -0.43970456651072
C           -0.68415007514653       -1.55660095298357        0.28644518003225
N           -2.01541183616367       -1.98529756688455        0.36200734329488
C           -2.41600352899941       -3.20000351616925        0.89327741991371
C           -1.64192562878968       -4.27258993839198        1.30989735281444
C           -2.30072647320107       -5.37943929001963        1.81806919245294
C           -3.68813430882322       -5.41030518948628        1.91918261943494
C           -4.46091807773573       -4.32892037733882        1.52561160949117
C           -3.82342711843610       -3.21187171996863        1.00892462719774
C           -4.29613420581979       -1.93419346153175        0.53217095518294
C           -5.59551333862424       -1.43806043966886        0.47948620604805
C           -5.75721362421168       -0.14590629778242       -0.02248176551304
C           -6.77841574160664        0.83651779719845       -0.31525060887350
C           -8.15410861330316        0.85084944867999       -0.13091143359621
C           -8.86895142115150        1.96889156649658       -0.52341873569045
C           -8.23180276236460        3.06499271542437       -1.09507284263894
C           -6.85865622554067        3.08166718720250       -1.29388894041295
C           -6.13409449833004        1.97209068379253       -0.90563585178936
N           -4.77315212134181        1.70781377633339       -0.97843167421529
C           -3.53739734726384        2.15747441089293       -1.40867223575133
C           -3.18711670790632        3.33683148643079       -2.03818531554599
C           -1.86193866546499        3.51530033705587       -2.40079452185764
C           -0.91183874906706        2.52931740857907       -2.15831266447175
C           -1.24947537168227        1.34501629775558       -1.52861183009921
C           -2.56235071591009        1.14476505586782       -1.11975536369328
C           -3.25407885510673        0.05315441411237       -0.46515178869822
C           -3.11812021415149       -1.21966363844331        0.11809036851743
C           -4.57990887977487        0.47321175500755       -0.44640845213269
H            1.36132818788222        0.89274820242495        1.48866063962802
H            3.41553863169449        2.91125335807075        2.11434153848038
H            4.10245759489911        4.99812790159436        3.24829033753585
H            6.46087154480543        5.72201921905176        3.17079321237687
H            8.12823261237176        4.36159274501856        1.96174617077271
H            7.42823056813524        2.27386442099895        0.83079256205306
H            5.11056461879217       -2.87663108385370       -1.86871787520417
H            6.80145231175706       -4.21540899516621       -3.08269178978817
H            9.14862689797054       -3.45748559201080       -3.15495133536334
H            9.80450646456432       -1.36737681793024       -2.01887220742950
H            8.10300966196082       -0.03629826415398       -0.80922133656861
H            2.30914285277119       -2.42016767571628       -1.05318693824436
H           -0.05061612380321       -3.15259634961122       -0.98860786963693
H           -0.56512699613893       -4.24375303025050        1.24693178657562
H           -1.72463642780506       -6.23175114967244        2.14478579423595
H           -4.16824900806506       -6.29011084256972        2.32016916098250
H           -5.53500278407561       -4.35488665015342        1.62172549192154
H           -6.42333501864601       -2.04032234421310        0.81668218888355
H           -8.65243155728091        0.00329177150360        0.31396101536317
H           -9.93921655271360        1.99362159242306       -0.38427982192385
H           -8.81637744811012        3.92328154387547       -1.39042835748166
H           -6.37557233232190        3.93813053817349       -1.73682988071731
H           -3.92389981200814        4.09622409372084       -2.24645906637575
H           -1.56449114227932        4.43030412717511       -2.89032964563653
H            0.11033496171325        2.68810078506065       -2.46855746386917
H           -0.49866770366319        0.58769396331441       -1.36885853678687
