78
 energy: -129.418431140044 gnorm: 0.000041350091 xtb: 6.7.1 (edcfbbe)
N           -2.05839603774532        1.06053861319402        2.38242234486804
C           -1.35773322211509        0.41469506194678        1.74310730734460
C           -0.44358985222655       -0.37781824304255        1.01326173427000
C            0.88859096415618        0.02026266672011        0.95992437182144
C            1.82715587013152       -0.75810673658849        0.29378296553948
C            3.22628222057904       -0.32847552598968        0.23291828854829
N            3.55819836578631        0.79051492704169        0.86798375519316
C            4.84221173608052        1.14018951599681        0.79534271345772
C            5.26489368688580        2.35418759006449        1.49121088595332
C            4.33284336581810        3.13330168134058        2.17670560521398
C            4.73797807296024        4.27802373974969        2.83568482445666
C            6.07216222625169        4.65588141447659        2.81770639337857
C            7.00384355532017        3.88561277036385        2.13784062495345
C            6.60525331067091        2.74002441060355        1.47664707971083
N            5.76098469328781        0.44729071903315        0.12783675335893
C            5.33839016087275       -0.65465362551361       -0.48600082594993
C            6.31442249867990       -1.44048897756013       -1.23874832755230
C            5.92785792350780       -2.61702717065978       -1.88055659514566
C            6.85464993458517       -3.35514600742182       -2.59113960254216
C            8.17187480668067       -2.92844967338237       -2.66900529218220
C            8.56263945147813       -1.75947680913765       -2.03326297216345
C            7.64076273758186       -1.01670133607228       -1.32126697159348
N            4.07684395354686       -1.08419405655281       -0.45352239557423
C            1.42341580313281       -1.94906837486980       -0.31517791248763
C            0.10634477030034       -2.35319409191943       -0.26240678969675
C           -0.84936840632819       -1.57603730497793        0.39129425519648
N           -2.17618593590856       -1.98757465685570        0.45295630173413
C           -2.60548309670013       -3.18089003603841        1.02371084998026
C           -1.86278162825841       -4.26202231476312        1.46901902164906
C           -2.54722474147302       -5.32500375436294        2.03125835982604
C           -3.93322832669309       -5.30749451599749        2.15792018221691
C           -4.67216923375741       -4.21776187541304        1.73932726225098
C           -4.00723817338449       -3.13967550939999        1.16921327429777
C           -4.45494223856391       -1.86749066292748        0.66208786040784
C           -5.75395019323506       -1.35161499228205        0.59281032470022
C           -5.89751277772912       -0.08726980952792        0.04220647784248
C           -6.90603338424662        0.90422280860257       -0.29168161256337
C           -8.27826588141907        0.95082063193726       -0.10705156394886
C           -8.97701156803064        2.06095831477468       -0.55123431582649
C           -8.32420657340933        3.11770076648350       -1.17345788011760
C           -6.95226655307821        3.10101694690404       -1.37194466655847
C           -6.24580759220888        1.99792754965188       -0.93238936955616
N           -4.88866756304320        1.70952301176010       -0.99681859157639
C           -3.64869787773827        2.11922069266171       -1.44947853414126
C           -3.28313962844319        3.26761965897788       -2.12780448344759
C           -1.95960917445224        3.41100250137507       -2.50667040323209
C           -1.02593599126618        2.41868571077707       -2.23431653680842
C           -1.38000046000449        1.26571636118614       -1.55584344155636
C           -2.68960637894809        1.10470012882448       -1.12503020065615
C           -3.39632111716687        0.04940633126655       -0.42000045778544
C           -3.27909349343520       -1.18990758273876        0.21745101172732
C           -4.71438713391665        0.49356042824085       -0.41432969635631
H            1.19958314774639        0.93628339984976        1.43750092572195
H            3.29852432381461        2.82630748209398        2.18122222811907
H            4.01248809151956        4.87770613445767        3.36495929598378
H            6.38576808746148        5.55092280634356        3.33410901211990
H            8.04267087138660        4.18010851261727        2.12447334507561
H            7.31611086978404        2.12797037542415        0.94395632337854
H            4.89951459453736       -2.93496908128315       -1.80965456512854
H            6.55119235915762       -4.26547326122520       -3.08649685941425
H            8.89419475028956       -3.50705378738453       -3.22541204384583
H            9.58833487432757       -1.42745683974130       -2.09473178322103
H            7.92632687991772       -0.10414512736368       -0.82191470128171
H            2.16102486307372       -2.53964508270320       -0.83452176618892
H           -0.20600757422866       -3.26360424756870       -0.75054159551914
H           -0.78623997987779       -4.27753228276584        1.39300781531356
H           -1.99264928139154       -6.18288522289792        2.38118804700028
H           -4.43381266719489       -6.15592235222362        2.60027014483460
H           -5.74479250206061       -4.19915698347058        1.85581124770442
H           -6.58727497821262       -1.93222837597201        0.95460539848918
H           -8.79090876777040        0.13281725608546        0.37638656778085
H          -10.04700474754349        2.10804390947815       -0.41254281677231
H           -8.89508341844208        3.97075825961550       -1.50925891820341
H           -6.45399664019698        3.92703295785688       -1.85508243730739
H           -4.01084547634597        4.02879607407381       -2.36140299676160
H           -1.65131260418013        4.30105672180512       -3.03452358029162
H           -0.00411845224534        2.54563270115596       -2.56137157857984
H           -0.64043149668277        0.49957874377463       -1.38252809989429
