78
 energy: -129.343454812549 gnorm: 0.000077838412 xtb: 6.7.1 (edcfbbe)
N           -1.90280355856919        0.91248033006268        2.47834728666015
C           -1.17525682524396        0.32323463196940        1.81106953012504
C           -0.26770176060036       -0.40411426607268        1.01744488738046
C            1.05389188503623       -0.00588096214199        0.96300781015967
C            1.99669891065987       -0.72852740574878        0.21050348417830
C            3.34954647437029       -0.30610663873532        0.15108364550430
N            3.73397477457476        0.81209039406850        0.81506083628773
C            4.98852281033960        1.17835271425373        0.73392152670219
C            5.41409392919186        2.39004634757912        1.43028908810782
C            4.48899295359789        3.16614528963245        2.12992033642404
C            4.89748221188997        4.31056947087163        2.78555148625950
C            6.22988650441879        4.69563046776335        2.75228782506727
C            7.15468937823574        3.92956156806869        2.05892228565864
C            6.75227811874539        2.78373446507410        1.40078687501871
N            5.91762994168951        0.49166506422152        0.04203408181553
C            5.48903943088206       -0.61382057312431       -0.59493603547734
C            6.47050445221097       -1.38721342023733       -1.35232610607233
C            6.09409414577058       -2.56057681011432       -2.00721467482823
C            7.02715160125548       -3.28911770249046       -2.71791206198456
C            8.34424644623026       -2.85849874263104       -2.78501695827455
C            8.72547910501520       -1.69352908989629       -2.13680188304716
C            7.79661543481398       -0.96009389745754       -1.42442238751560
N            4.24541060245998       -1.02384851480008       -0.57120915575338
C            1.55487804472107       -1.88717779440893       -0.48334149798714
C            0.24522625759632       -2.28496015665632       -0.42880552017212
C           -0.69587945045303       -1.55733787667401        0.30745083768822
N           -2.03160529080427       -1.97196133756421        0.38916282434458
C           -2.44454867206011       -3.17789249168856        0.92999475166133
C           -1.68113485400997       -4.25557675789219        1.35307017875266
C           -2.35086702593928       -5.35115566100139        1.87119748707350
C           -3.73838820225262       -5.36607143143552        1.97501575400932
C           -4.50034031328675       -4.27974843007218        1.57386576742422
C           -3.85191661223403       -3.17364653558106        1.04734386454585
C           -4.31144410668761       -1.89502219120509        0.56020499600850
C           -5.60578972933010       -1.38644605749738        0.50072163233015
C           -5.75383898932761       -0.09740378907910       -0.01331648283783
C           -6.76516806056808        0.89115435588279       -0.31968850118020
C           -8.14153210678802        0.91901585214463       -0.14210390613869
C           -8.84495882793994        2.03905956818843       -0.54929049338989
C           -8.19584328433094        3.12405042999665       -1.12866815773088
C           -6.82172660245331        3.12705317528413       -1.32114670574499
C           -6.10854689555068        2.01520180662599       -0.91853130673707
N           -4.74971048620907        1.73832893347779       -0.98321622752518
C           -3.50880001930682        2.17160581753240       -1.41552593835650
C           -3.14587481059564        3.34110681952601       -2.05616073691812
C           -1.81835377020142        3.50298915191618       -2.41803314813816
C           -0.87823560621483        2.51055965125574       -2.16333369879107
C           -1.22851999330912        1.33606564248931       -1.52225436092472
C           -2.54418983430031        1.15245303893505       -1.11461462525083
C           -3.24794596525475        0.07383386356386       -0.45135892020489
C           -3.12604275469400       -1.19610226395229        0.14093500069002
C           -4.56954983623652        0.50716214774054       -0.43875487918832
H            1.37959418017681        0.86853391786799        1.50578777304645
H            3.45532206718328        2.85542584240705        2.14669044771198
H            4.17568332699393        4.90626486642740        3.32493928989180
H            6.54609635804685        5.59128268716749        3.26610457677961
H            8.19254741739891        4.22781417029392        2.03212406358188
H            7.45929786575378        2.17585621913352        0.85735667527224
H            5.06623663499583       -2.88367212031526       -1.94424749934125
H            6.72937100429250       -4.19679905849147       -3.22219439286667
H            9.07196769831157       -3.43046266820264       -3.34131727832896
H            9.75056668169621       -1.35687401297477       -2.18830364683249
H            8.07661269087343       -0.05084026872028       -0.91493512005932
H            2.27873932867013       -2.43872722458390       -1.06112757199404
H           -0.08588783548863       -3.15467011474992       -0.97718045933073
H           -0.60423008484543       -4.23860584624784        1.28694978308033
H           -1.78355931996699       -6.20709279897802        2.20375402827896
H           -4.22722502008157       -6.23739631721333        2.38394249337088
H           -5.57448755179136       -4.29363348046081        1.67172448919533
H           -6.44028446815578       -1.97755592934635        0.84117744788710
H           -8.64922783749263        0.08017755974844        0.30864250026282
H           -9.91565795985732        2.07408356195609       -0.41581143500360
H           -8.77171859267312        3.98424893441562       -1.43534456238237
H           -6.32917738367630        3.97472038280261       -1.77053533684593
H           -3.87483908134673        4.10544070364030       -2.27364765318094
H           -1.51120779236518        4.40996046753639       -2.91642946510920
H            0.14604114134714        2.65631312534658       -2.47304778848529
H           -0.48530482391463        0.57343734571012       -1.35279522185711
