69
 energy: -113.008567441883 gnorm: 0.000040902814 xtb: 6.7.1 (edcfbbe)
C            6.51795626235198       -0.91378670948987        1.67470900252757
C            6.11691249428134       -0.48238589009655        0.25928633037713
C            6.42802670718830       -1.59033026136867       -0.75524220564200
C            6.88078346927873        0.78745480061920       -0.11844753154803
N            4.67765207049303       -0.19819348381808        0.23316922839426
C            3.71256558292946       -1.16423376776856        0.55376219975864
O            3.98835692724864       -2.29399148608753        0.98480009900983
C            2.40380234552885       -0.66272538698800        0.30311683837573
C            1.18682203325431       -1.31277255693695        0.57537614047668
C           -0.00371450260043       -0.67687938994539        0.32172380847135
N           -1.21563408312720       -1.27208792059607        0.68103391407490
C           -1.64068658077467       -2.52480557244201        0.29336122636245
C           -0.97505584791154       -3.49319653329758       -0.45130316093931
C           -1.65613875459522       -4.65947488419304       -0.74651670555431
C           -2.96740818609979       -4.86127668876589       -0.32015750979228
C           -3.64278722475518       -3.89190418453775        0.40530272369024
C           -2.98015374245312       -2.71614206253912        0.71470154724989
C           -3.35988350502337       -1.52012908785361        1.42334023451441
C           -4.51281819187305       -1.12414240365341        2.08047007038751
C           -4.52013247502362        0.10554001848181        2.72155061905440
C           -3.38770848319196        0.91413411890537        2.73827595579112
C           -2.22656126604587        0.53892673303395        2.08592349253085
C           -2.23382432396265       -0.66486206638969        1.39299712719906
C           -0.02553424780946        0.64501897062931       -0.27700520584134
N           -1.23474759602757        1.22985758989331       -0.64502905302858
C           -2.24756370253303        0.61735314808124       -1.35975190096364
C           -2.23288162710333       -0.58941946734659       -2.04838846334198
C           -3.38977841083765       -0.97314601165788       -2.70249351459750
C           -4.52798558048406       -0.17123754781971       -2.68864897470830
C           -4.52874432327614        1.06120587984512       -2.05267274935738
C           -3.37882552028850        1.46804969508240       -1.39677173000658
C           -3.00522947574617        2.66935792660641       -0.69625801651115
C           -3.66989237148951        3.84704395358850       -0.39843654158049
C           -2.99987686651467        4.82135524800679        0.32549057752661
C           -1.69071957219727        4.62344798173574        0.76271663317503
C           -1.00693728219823        3.45622934994872        0.47906580035941
C           -1.66680584767585        2.48248084770487       -0.26493315689690
C            1.19206025133440        1.29283691218330       -0.54226152336813
C            2.35928092359881        0.64973662986717       -0.26663696665410
S            4.02122364241034        1.15551567905780       -0.52914194873584
O            4.33671203245393        2.35904065277866        0.20243654995031
O            4.36669979170585        1.18222777078528       -1.93292444321126
H            5.97168450838506       -1.80960773769902        1.95778677372725
H            6.28618171518213       -0.12216813155118        2.38403172863443
H            7.58399516081047       -1.12042705355355        1.70553456213655
H            7.49505237787578       -1.79415526794707       -0.76832742560148
H            5.89513212642915       -2.49812821919059       -0.48234316236046
H            6.11054616158659       -1.27745331778401       -1.74844526727158
H            6.63987898148481        1.59491579033818        0.56848526352120
H            6.61545929353065        1.10717784135110       -1.12305350218460
H            7.94903251766361        0.58979975978735       -0.07865760237387
H            1.21257406251677       -2.28384366124054        1.04530279169658
H            0.03902957487432       -3.34092413178058       -0.78754854343898
H           -1.16012504213880       -5.42865170054786       -1.31866512827044
H           -3.46485950649586       -5.78697418541717       -0.56653595315424
H           -4.66346942855862       -4.04641993014690        0.71811950176422
H           -5.38192990354412       -1.76270883169244        2.09920671281758
H           -5.41053321721952        0.43358854591638        3.23570955812886
H           -3.40966005308011        1.84947228923409        3.27603880288820
H           -1.33946882989891        1.15107138191505        2.13308280418068
H           -1.34147003112572       -1.19554729353343       -2.09305700106792
H           -3.40507334093413       -1.90904978690445       -3.23941186212354
H           -5.41596200556330       -0.50692107978609       -3.20207146229493
H           -5.40203550832336        1.69401787787439       -2.07509740083818
H           -4.68868500027403        3.99943202014908       -0.71854219618422
H           -3.49989069375739        5.74788510133226        0.56343751519383
H           -1.20033158265829        5.39591536318846        1.33524102449756
H            0.00388463036172        3.30590492937678        0.82646306130145
H            1.20021644092974        2.26707250807551       -1.00588040849907
