69
 energy: -113.094918700549 gnorm: 0.000048997380 xtb: 6.7.1 (edcfbbe)
C            6.82126261024743        1.17174931845296        0.42626892334232
C            6.13575529663302       -0.09857937145772       -0.07262170740064
C            6.52329216269748       -1.28137496774365        0.81967216944839
C            6.52855111946181       -0.35557957937664       -1.53054386935045
N            4.67099072495867        0.09037115255093       -0.00054523500035
C            3.78131541628968       -0.86470164075163       -0.39240759819419
O            4.06096219217662       -1.95474100780865       -0.85260053263434
C            2.39238962068287       -0.39417086522539       -0.17519636206852
C            1.24698712627691       -1.09877583409322       -0.50634282372037
C           -0.00415800342768       -0.53588437938434       -0.25781389704452
N           -1.15216360696514       -1.22526428875668       -0.63563274528790
C           -2.22485085040055       -0.69508423670028       -1.33806326528809
C           -2.32545157245905        0.51584360675559       -2.00443950569948
C           -3.51247205239555        0.79616666242603       -2.65594290777441
C           -4.56575922842845       -0.11386130786413       -2.66643051708014
C           -4.44612391453856       -1.34682616854789       -2.05442142280967
C           -3.26356122267660       -1.64828272654293       -1.39300600840941
C           -2.78657203182370       -2.81684396021479       -0.70291764554902
C           -3.35271729433968       -4.05309865089176       -0.42209183986721
C           -2.61086586119298       -4.97392734282587        0.29228687412644
C           -1.32637235944206       -4.66946400809718        0.73471564380714
C           -0.74309415179559       -3.44352759009048        0.46839072484774
C           -1.47717503292999       -2.52416011700027       -0.26465756981705
C           -0.09435418786987        0.73627644985802        0.36494823524089
N           -1.32683022328369        1.29449086362805        0.68002547025584
C           -1.77117162730599        2.55254978736055        0.29063947042891
C           -1.10589193783550        3.54640787907293       -0.41028280375836
C           -1.80493596161584        4.70261623979224       -0.70886622118184
C           -3.13422380848204        4.86617227567384       -0.32901599101686
C           -3.80603544244336        3.86963507161068        0.35260047218884
C           -3.12418362056429        2.70110040562447        0.66417629065059
C           -3.50536866773508        1.48630589911930        1.33441160349586
C           -4.67820415209472        1.05871301673427        1.94126201969278
C           -4.69299473749559       -0.18095999080421        2.55158367709653
C           -3.54902178459247       -0.97281930919723        2.59322784299086
C           -2.36991610941703       -0.56566829912536        1.99637207442089
C           -2.36927382426347        0.65013577491851        1.33177812752403
C            1.07496361540460        1.44029998911268        0.67481400091869
C            2.28875409962418        0.86389226878916        0.39527488658235
S            3.93116074817689        1.48080789746690        0.66086444450403
O            4.24163914499123        1.59015478241020        2.05640463186139
O            4.19895836958218        2.62528807183290       -0.15985652946778
H            6.54631535216022        1.37816400148868        1.45723434505689
H            6.53732312374993        2.02635690111666       -0.18216957446915
H            7.89859022677081        1.04036583692013        0.36904851300326
H            7.60094160307645       -1.41457757299603        0.79967799998816
H            6.20853968304906       -1.09300069612255        1.84405382779084
H            6.04979704762281       -2.19317311670875        0.46538837091530
H            6.05890789634051       -1.26469665881921       -1.89582444735553
H            7.60686009920970       -0.46399451273008       -1.60091688138840
H            6.21561890729933        0.47942458923205       -2.15369315071560
H            1.32983975636711       -2.05979620132036       -0.99007779420686
H           -1.50438932590063        1.21539651486084       -2.03243418254191
H           -3.61898171299205        1.73969752145663       -3.17003336446210
H           -5.47992626437806        0.14298148571059       -3.18036756309477
H           -5.24941375015122       -2.06639942085398       -2.09418732980515
H           -4.35366197843795       -4.28334479927290       -0.75329215268389
H           -3.03124547903621       -5.94237254434151        0.51889267609278
H           -0.77214547783796       -5.40396908874430        1.30004186665902
H            0.24851538672118       -3.21571835823869        0.82992672157718
H           -0.07934376907813        3.42774990261747       -0.72437779742077
H           -1.30660702208681        5.49294512635667       -1.25039950099438
H           -3.64530607721454        5.78381744615508       -0.57907700081928
H           -4.84047531038479        3.99062497469676        0.63489258593943
H           -5.55522710603815        1.68745192264251        1.94134700622640
H           -5.59722076332813       -0.53509867013580        3.02351652265255
H           -3.57757232142359       -1.92311826810941        3.10498912498296
H           -1.48087217875594       -1.17321477373057        2.06324536287961
H            1.01790247528052        2.40211568816984        1.15857623117818
