93
 energy: -148.456797194960 gnorm: 0.000065050940 xtb: 6.7.1 (edcfbbe)
C           -5.76286191378097       -3.19644614834080       -0.03615009250403
C           -4.87477529819813       -2.54693187361355       -1.11412744362372
C           -5.68096607576898       -2.33141247623493       -2.40878614614117
C           -3.71915056571733       -3.47945280323569       -1.41616843217848
C           -3.97615543515664       -4.75108815506285       -1.90962262200486
C           -2.96060935635966       -5.63512193934856       -2.22310454934699
C           -1.64370033497255       -5.24300545677271       -2.05348038088134
C           -1.35913574518835       -3.98844624029583       -1.56107258103992
C           -2.38562666650116       -3.09829639696930       -1.22276687143972
N           -2.07089545061432       -1.85289486564003       -0.71465264115794
C           -0.70187090077965       -1.50640622741607       -0.53052259907742
C           -0.06902188253289       -0.66844054713161       -1.46082866285621
C            1.24375084969236       -0.33538400430342       -1.27434828792303
C            1.96891695292792       -0.82458290166129       -0.17283612119922
C            1.33805184421012       -1.67785941007501        0.76793655464106
C           -0.01168448866646       -1.99323410373577        0.55648071312908
C            2.09282370501474       -2.17895738436292        1.88732909895253
C            1.54714140068133       -3.03575898472267        2.85699635549051
C            2.29564226113406       -3.49649542162143        3.91145385627750
C            3.63353876000121       -3.11960497485355        4.04690016904192
C            4.19878901771176       -2.28637808681742        3.11831570958764
C            3.45058330815041       -1.80456553551656        2.03147016201041
C            4.07852578477812       -0.94017739874906        1.08220619753325
N            5.35565651982314       -0.58887980590505        1.21918553142165
C            5.94916833333293        0.22064492688366        0.33839471254785
C            7.31492419763354        0.59123864630507        0.48521283639800
C            8.08792155779182        0.11680855907239        1.55961934370914
C            9.40040017808403        0.49803639491833        1.66302482802942
C            9.92385023370962        1.35513828412026        0.68305827226748
N            9.22857038728639        1.81067521682081       -0.32459982092846
C            7.94769244130301        1.45367490475505       -0.44834846964682
C            7.19062951061773        1.96023563384566       -1.56080485309576
N            7.79293490790303        2.77365596691433       -2.43268660661015
C            7.11241509707874        3.23890621678077       -3.44603767350223
C            5.76381006875659        2.93355214467412       -3.68197525530164
C            5.12259349853057        2.10061179653652       -2.80158396384674
C            5.82947060894305        1.58448911046059       -1.70223713000788
C            5.20171407438090        0.71630642280843       -0.76276969585715
N            3.92550193227088        0.35989266024912       -0.90202501495515
C            3.33539911397624       -0.45133694906055       -0.01912514856214
C           -3.03801284503149       -0.91378715912610       -0.40270964338884
C           -2.64176752719528        0.31248022310176        0.13647178002806
C           -3.59465483109030        1.27004927451012        0.42341189150363
C           -3.53365226012309        2.59558590057779        0.97374037674699
C           -2.48933704710052        3.40750094947082        1.39300384147404
C           -2.78372646460363        4.67479461927619        1.85696318051773
C           -4.09657870984742        5.13820869261737        1.88953480215579
C           -5.15284838021864        4.34773596196381        1.47634785748869
C           -4.86654394549401        3.06490819885690        1.03338372253796
N           -5.71759392790656        2.09001472003831        0.54728268305973
C           -7.11024491870200        2.19178338940582        0.43428617474909
C           -7.87389764129376        2.61027376740054        1.52030085825871
C           -9.24745594667189        2.71098554808299        1.39985644959994
C           -9.87063665112087        2.38650563854239        0.20620408964462
C           -9.11277542729788        1.96441571572800       -0.87363854492492
C           -7.73778323684170        1.87083422624441       -0.76655442329065
C           -4.95763182455635        1.00121983044983        0.17368603705378
C           -5.35463167981295       -0.23533819182373       -0.30751399615651
C           -4.40447897136367       -1.19890952512892       -0.60242165368979
H           -6.13140480719298       -4.16244203821963       -0.36943385508841
H           -5.18836960510310       -3.34420344542690        0.87632485687538
H           -6.61768902178810       -2.56689341946239        0.19520814541768
H           -6.03147605516856       -3.27816765279239       -2.80934692819290
H           -6.54631761524220       -1.69990580552719       -2.22816009168359
H           -5.05436181620727       -1.85293771542506       -3.15915981758221
H           -4.99763528907846       -5.06745774479517       -2.05722042351702
H           -3.19592459418780       -6.61744624720163       -2.60284597222162
H           -0.83613982420619       -5.91358006319599       -2.30551106242732
H           -0.33115096331278       -3.68584485350721       -1.43771936130755
H           -0.62833864675992       -0.29774708016602       -2.30645132125676
H            1.75917565346513        0.30804386894121       -1.97025786810151
H           -0.54062790696426       -2.63353656886016        1.24475528301998
H            0.51734627615717       -3.34736877759190        2.78126476240636
H            1.84799904749575       -4.15509034744027        4.64126854576626
H            4.21545965336339       -3.48580487479555        4.87946967525858
H            5.23039794192877       -1.97951464746418        3.19625015298545
H            7.62155320857223       -0.54048781870970        2.27914718082510
H           10.02313009546371        0.15303458982268        2.47394301092410
H           10.95540318957466        1.67999407546342        0.72831494913289
H            7.65535802095679        3.89248252309191       -4.11676427907089
H            5.25213084107015        3.34829133766732       -4.53675491373405
H            4.08505686877887        1.82505513082728       -2.92337817248113
H           -1.60145932072384        0.51297491807251        0.33432710470938
H           -1.47069496977746        3.05267593665183        1.35082430664052
H           -1.98689264996637        5.32225325488960        2.19079241992289
H           -4.29452191458298        6.13968710492202        2.24178231077003
H           -6.16438482936846        4.72447461434496        1.48767881813666
H           -7.38699864247751        2.83934220862608        2.45634219361905
H           -9.83492642391913        3.03657588313575        2.24542719682162
H          -10.94364957396182        2.46289663947854        0.11743873559461
H           -9.59400087865479        1.71548856179999       -1.80789807764743
H           -7.14077749757634        1.56739069731202       -1.61372055606978
H           -6.40461995002209       -0.44454788834845       -0.43753016637837
