93
 energy: -148.505403033111 gnorm: 0.000196652671 xtb: 6.7.1 (edcfbbe)
C           -5.75633198609525       -3.15119217263410        0.08610920543913
C           -4.87701515137365       -2.55215811873317       -1.02742126075464
C           -5.69344608115619       -2.39398703889461       -2.32368580672055
C           -3.72427549730268       -3.49880384886144       -1.29826992976685
C           -3.99200940320337       -4.78940975567680       -1.73413082897878
C           -2.98562327610402       -5.68866413576259       -2.03193120513717
C           -1.66724107149750       -5.28741562762289       -1.91368959369923
C           -1.37314011902409       -4.01279434918812       -1.47928088624817
C           -2.38907464593302       -3.11159402477261       -1.14295361223839
N           -2.06463853106411       -1.84262008029211       -0.69134093058260
C           -0.70109745334039       -1.49426667837555       -0.52750363816744
C           -0.10390650142487       -0.57703454130333       -1.39649453313783
C            1.21606194522477       -0.24567313943475       -1.22057714914214
C            1.97146526501649       -0.81875962597807       -0.19166671149148
C            1.38494424450577       -1.75414016175785        0.68574802131488
C            0.03536198625519       -2.06510014964858        0.49422508790597
C            2.18027144869194       -2.35496739675340        1.74516668193149
C            1.65874707275402       -3.30313503136527        2.63396874197355
C            2.43406880866183       -3.85839098264935        3.62747689778025
C            3.76666712385068       -3.48724961501454        3.77338361387075
C            4.30750442688917       -2.56102179173808        2.91382377598826
C            3.53299263107478       -1.98982107316161        1.89965262154686
C            4.12827173542109       -1.02393318798462        1.00681082216332
N            5.40353117215237       -0.69014148739670        1.17282630600463
C            5.93480626335374        0.19907705538868        0.34062652314167
C            7.31735359909486        0.57717074987520        0.50417298306739
C            8.11378691945345        0.03142158813281        1.51681684730960
C            9.42618790987135        0.43215516156260        1.62366127248065
C            9.90511131404567        1.37218603771128        0.70850184554673
N            9.17613737894086        1.89542315165835       -0.24735447139078
C            7.90268861543012        1.51941997959377       -0.36621348787846
C            7.11061702936171        2.11030518265502       -1.43101407532036
N            7.69916037071508        2.99688400261819       -2.23404026698143
C            6.99841137073452        3.54122494812667       -3.19920775837858
C            5.65511676205666        3.24769624424306       -3.44364587805805
C            5.03026581895329        2.33424866369535       -2.62527410630094
C            5.75923510672910        1.74064896888068       -1.58905459213270
C            5.16158000079387        0.77638501967704       -0.69745326413244
N            3.88648298326196        0.44327225774479       -0.86376838527497
C            3.35523875296716       -0.44644864062409       -0.03092449847511
C           -3.03643050447697       -0.88742636846146       -0.40419780953747
C           -2.64404050684627        0.35063931738840        0.10078869808690
C           -3.59885964613465        1.31700123252016        0.36273543741459
C           -3.53642902666717        2.65599992912218        0.87596863384632
C           -2.49014297813222        3.48167240110070        1.26392183466798
C           -2.78156512639541        4.76066780783312        1.69410846636728
C           -4.09529174593471        5.22330116291018        1.72389150151161
C           -5.15317686893838        4.42052878694936        1.34201119952243
C           -4.87025620438836        3.12509755146517        0.93287464971800
N           -5.72271657163134        2.13865697282867        0.47925957776283
C           -7.11653045216996        2.22562074039378        0.38703670195637
C           -7.86654306465497        2.67507539342490        1.47057644525249
C           -9.24299427223095        2.75632162869075        1.37201510324155
C           -9.88421061095619        2.38133175023375        0.20300117507081
C           -9.14058518410086        1.92913349329685       -0.87452092869877
C           -7.76298227451945        1.85509115225887       -0.78957542286089
C           -4.95979495164651        1.03871810569338        0.12864703459273
C           -5.35385530709969       -0.21287367351674       -0.30828551301490
C           -4.40076043126299       -1.18302860348317       -0.57976489123630
H           -6.12279891995819       -4.13414199014244       -0.19649375267869
H           -5.17557823260666       -3.25126091267677        1.00120384356002
H           -6.61284184803787       -2.51511184557484        0.29211128544121
H           -6.05617321832706       -3.35599543555253       -2.67430410933637
H           -6.55137388136938       -1.74592853411872       -2.16733952330430
H           -5.06935870173292       -1.95889542774387       -3.10212674699480
H           -5.01694007463159       -5.10868157587576       -1.84878382801537
H           -3.22947142114798       -6.68620386267787       -2.36397072480218
H           -0.86344742300649       -5.96437135542340       -2.16228478474863
H           -0.34097086776160       -3.70676571743182       -1.40640683918011
H           -0.68924586499240       -0.13942302498133       -2.19105735349867
H            1.70539428263539        0.45933996512884       -1.87339846843234
H           -0.46831630473520       -2.76597225276791        1.14072098435340
H            0.63084317331816       -3.61738140831038        2.55025425611973
H            2.00244808332878       -4.58776706849585        4.29711201446366
H            4.36893194091776       -3.92589846878231        4.55475205101039
H            5.33750674194938       -2.25248604097780        2.99667877130862
H            7.67714616747412       -0.69097764176474        2.18945328633588
H           10.07255957273249        0.03525683090430        2.39119952684744
H           10.93001606072776        1.71768671310257        0.75452428823849
H            7.53143687302458        4.25238622956202       -3.81730367078996
H            5.12742076576766        3.72724903426678       -4.25359445494624
H            3.99459855632607        2.06011724363843       -2.75616960909921
H           -1.60584006327625        0.56224253875858        0.29952886594449
H           -1.47111539255481        3.12674322862003        1.22302764572790
H           -1.98297219076257        5.41870147549515        2.00301996731500
H           -4.29149470032489        6.23441887992258        2.04928020898194
H           -6.16503231145873        4.79691207755688        1.35074239053595
H           -7.36595785508255        2.94353010092326        2.38882280724875
H           -9.81888806639694        3.10589696794157        2.21619887976941
H          -10.95968630524903        2.44143471691444        0.13176584929096
H           -9.63573453689925        1.64035614601761       -1.79003599393822
H           -7.17807138564656        1.52691080919244       -1.63592157076234
H           -6.40367003291510       -0.43286333612243       -0.42101038815014
