92
 energy: -145.396633313843 gnorm: 0.000053996861 xtb: 6.7.1 (edcfbbe)
C            0.94130490300538       -3.35729886055819        0.99597734971107
C            0.65345436376532       -2.27004155674270       -0.05767816195002
C            0.74811437917922       -2.86502619018051       -1.47607840670842
C            1.68646019143784       -1.17050612365045        0.07040939655956
C            3.02282007265660       -1.47422583851444       -0.11880707500835
C            4.02184854715303       -0.50784065258175       -0.02717138920698
N            5.35644896316406       -0.85670394953891       -0.22032699811878
C            5.85159157489841       -1.62108336003193       -1.26253574976408
C            5.19103076470230       -2.15091005769132       -2.36246504641710
C            5.93995217687875       -2.85259379496898       -3.28961269160142
C            7.31441739952913       -3.01735286006146       -3.13842261567330
C            7.98285809891874       -2.46438289033513       -2.06140567064993
C            7.25133213367522       -1.75734190070210       -1.11792837001812
C            7.61119530322410       -1.04037354183493        0.07726390102354
C            8.81269919457416       -0.83631268060065        0.74016762629758
C            8.80580878081560       -0.09884317192156        1.91006931118039
C            7.61877476233043        0.41481134673029        2.42608476670145
C            6.40924513927551        0.22193057700311        1.78375384903662
C            6.41442526155369       -0.49273775787712        0.59384804889476
C            3.66077935157264        0.81357511336237        0.24414770091208
C            2.33889426978349        1.13657517338981        0.42334375130806
C            1.33258075526910        0.15870029656424        0.36141189500039
N            0.01807332611688        0.51856374912248        0.55392774463984
C           -0.29348856382586        1.88272360863561        0.81691266734887
C            0.03227979297618        2.44597290235463        2.05364411068013
C           -0.28695713992452        3.77944897583137        2.27709117222598
C           -0.90359848281644        4.54227508853460        1.30174750614142
S           -1.26082655815458        6.21057739232568        1.73040017294718
C           -1.97075041928121        6.87878961383272        0.25849349579461
C           -2.30648288991499        8.22138981282123        0.30534070912409
C           -2.87569452394027        8.84526145935264       -0.79470314034822
C           -3.10505351481544        8.10721367586628       -1.94919647783082
C           -2.76659008395907        6.77473567964076       -1.99703336798463
C           -2.19084419607309        6.11015429348179       -0.89571615637655
C           -1.86342783877521        4.70555691771571       -1.04028637584372
O           -2.13054316050217        4.09980684404097       -2.13144462439495
C           -1.23234397087691        3.99642212445812        0.03969331546330
C           -0.91154705200551        2.63405622622992       -0.15877380282989
C           -1.00676065726194       -0.39489403128288        0.45759685352212
C           -2.32896846982266        0.01348810299862        0.69781510057167
C           -3.37635178290973       -0.86861364925224        0.60686594122613
C           -3.13120356441278       -2.20737328331045        0.29385229345122
N           -4.17823949038401       -3.12076768661674        0.19837798818413
C           -5.35263871942444       -2.93418217271019       -0.50921980626352
C           -5.74247587999542       -1.86968834270443       -1.31019095395727
C           -6.96878659503787       -1.95509052253935       -1.94419970138648
C           -7.78573429411089       -3.07356089083194       -1.79957761344943
C           -7.38938136859339       -4.14913825904976       -1.02588010206770
C           -6.16395507024979       -4.08488570208015       -0.37874310902876
C           -5.44122166634040       -5.00283229160146        0.46218670284719
C           -5.72833920168280       -6.26478527230133        0.96234635247579
C           -4.80395310642193       -6.87438008488970        1.79098836078325
C           -3.61803578862138       -6.23135112160670        2.13616374635060
C           -3.31152366373822       -4.97326885187012        1.65031862695235
C           -4.22063822407302       -4.37037263207888        0.79186221004009
C           -1.81718349707702       -2.62258690897246        0.09093287942275
C           -0.74965008470743       -1.74596413137351        0.16483890826612
H            1.95375752015881       -3.73514611052073        0.89268011388063
H            0.25561291018459       -4.19123872194136        0.88283637252383
H            0.82767076545888       -2.94553058018598        1.99686263039883
H            0.57194484504653       -2.08859666924497       -2.21827253590576
H            1.73019971117748       -3.29447740973025       -1.64806110451046
H            0.00852632291005       -3.64724830459915       -1.61632107848241
H            3.31842710503525       -2.49137197701060       -0.31911189640959
H            4.13215668879530       -2.00346891846204       -2.50679980446145
H            5.44858582798102       -3.27625502076264       -4.15301411127709
H            7.86522214576766       -3.57314672092972       -3.88261563148924
H            9.05185746933776       -2.57237436186897       -1.95813468700342
H            9.73075705230243       -1.25008228516519        0.35152198177019
H            9.73091925037168        0.07426902127491        2.43956204138495
H            7.64164106875730        0.97263937532057        3.35059467348787
H            5.49356804428086        0.60818408774577        2.20392061069170
H            4.41433484309711        1.58472559725370        0.27339790689349
H            2.06545459730080        2.16488168317810        0.59508933512031
H            0.50471261973934        1.85400385092688        2.82035693426595
H           -0.06453275610488        4.23671226867646        3.22932161190490
H           -2.11685918770352        8.77546135420323        1.21348797189406
H           -3.13586921145287        9.89138249632238       -0.74705083661958
H           -3.55176227697244        8.57727784745101       -2.81365290030955
H           -2.93497658281769        6.18370226970242       -2.88615583789418
H           -1.15630383513509        2.20775620829890       -1.12047517591716
H           -2.52453604512755        1.03866575947659        0.96744283909017
H           -4.38187832650266       -0.53637562520641        0.81173770704342
H           -5.11030686298038       -1.00577831195275       -1.44791153611749
H           -7.29597022532998       -1.13713340423440       -2.56903898376849
H           -8.73717985752415       -3.10164364178923       -2.30957490957927
H           -8.01506540405723       -5.02355016840188       -0.93101062007204
H           -6.65785022097678       -6.75404228715004        0.71409615924395
H           -5.00735048092344       -7.85766474168534        2.18829271892009
H           -2.92540988286363       -6.72251921039524        2.80341369459127
H           -2.40365709848314       -4.47260502786715        1.94801160354828
H           -1.64556860129210       -3.65689861518505       -0.15981275965011
