92
 energy: -145.396670632936 gnorm: 0.000058198718 xtb: 6.7.1 (edcfbbe)
C           -1.03049674076087       -3.30942466991946        1.03728422237891
C           -0.71531946982887       -2.25450458039527       -0.04102649868673
C           -0.82628879568229       -2.87988442838179       -1.44514099742707
C            0.70084309819739       -1.76213031339712        0.17144882687007
C            1.74594444751206       -2.66620809713718        0.10936253350822
C            3.06965159326580       -2.28253504229971        0.31182724662627
N            4.09393058468523       -3.22174384738133        0.22217111959196
C            5.27386868360592       -3.06572114860814       -0.48394860371462
C            5.69403055413394       -2.01030627152988       -1.28158309305924
C            6.91886879863783       -2.12724341688040       -1.91338314793969
C            7.70492396968254       -3.26776523597986       -1.77013377012133
C            7.27758281740965       -4.33445007961327       -1.00064805703263
C            6.05320878012033       -4.23849764091303       -0.35541441509259
C            5.30438386487022       -5.13867171343479        0.48187347353299
C            5.55582831887692       -6.40981395372830        0.97798978759630
C            4.61420452390188       -6.99615074330667        1.80397983866296
C            3.44685403689377       -6.32104226256391        2.15120849479532
C            3.17594292754863       -5.05331673364783        1.66932144714394
C            4.10151968265378       -4.47358752507145        0.81245811589327
C            3.34722613961580       -0.94833947557609        0.61743153154119
C            2.32253485215893       -0.03873841007029        0.69473068456256
C            0.99188201780394       -0.41458385335505        0.44847701726979
N           -0.00879833469194        0.52735650143923        0.52095885011973
C            0.33279944095923        1.88385822979816        0.78533751553757
C           -0.00464214848093        2.45716894971739        2.01446130851835
C            0.34419356602055        3.78208613059101        2.24378435916960
C            1.00005473513570        4.52766753454884        1.28075259591162
S            1.39194752813382        6.18627690788180        1.71628728620211
C            2.13956375865511        6.83759628602434        0.25556330463506
C            2.50200598931234        8.17305595326992        0.30654752885355
C            3.10344456954133        8.78312364336016       -0.78405973049844
C            3.33803215419918        8.03843244422261       -1.93321664487266
C            2.97276474549266        6.71318895224392       -1.98527705093407
C            2.36401177482279        6.06249389139078       -0.89346969258278
C            2.00991865329071        4.66468296669421       -1.04181240591628
O            2.28622406796130        4.05063127877788       -2.12601687075608
C            1.34039503917301        3.97227634509341        0.02586615823189
C            0.98989186900542        2.61793044246654       -0.17794882214334
C           -1.32986825446262        0.20067604398108        0.31606082786687
C           -2.30713905805362        1.20933881341374        0.33229661920425
C           -3.63610693256293        0.91919829482072        0.14993972440939
C           -4.03489657717684       -0.40085532635459       -0.07203728207592
N           -5.37842320400961       -0.71902916341994       -0.25263699477634
C           -5.89437290437481       -1.52961663441496       -1.24937937062599
C           -5.25005611351226       -2.13890211216978       -2.31745287876264
C           -6.01771758972126       -2.87717900357572       -3.19981665022927
C           -7.39528992650271       -2.99974745746698       -3.03767765916860
C           -8.04762147766512       -2.36613956847940       -1.99584105611588
C           -7.29696742321718       -1.62114172085618       -1.09778955736069
C           -7.63771110000890       -0.82405670938415        0.05126586688790
C           -8.83449561636653       -0.54638707471403        0.69570308578985
C           -8.80956385120161        0.26134413220415        1.81792369228729
C           -7.60927192440857        0.77016485091042        2.30716729284957
C           -6.40418495698162        0.50396547209121        1.68281064281856
C           -6.42676510440250       -0.28006302861941        0.53758393409726
C           -3.06299803097635       -1.39767732644101       -0.12542668381883
C           -1.71923825697962       -1.12543857976240        0.05855244220857
H           -2.05008900402894       -3.66882415351245        0.93813687180457
H           -0.91257210435694       -2.87620189354227        2.02855313485141
H           -0.36166325368584       -4.15980244099995        0.94749343012337
H           -0.62992397931714       -2.12604906405336       -2.20532668068697
H           -0.10820412225123       -3.68481139869984       -1.56727279585071
H           -1.81962660435974       -3.28689558228206       -1.60678188636802
H            1.54865199198192       -3.69824202412747       -0.13145233472553
H            5.08582408673772       -1.12932164430328       -1.41877965546130
H            7.26941305854000       -1.31655136423786       -2.53503536407006
H            8.65646813070189       -3.32014034721064       -2.27801622753042
H            7.87889765048409       -5.22594406011681       -0.90723953274404
H            6.47148206073963       -6.92398395909584        0.72859380678299
H            4.78952826018857       -7.98622732158155        2.19779956146709
H            2.74052602396350       -6.79463150241248        2.81682908462688
H            2.28275587572747       -4.52811675793858        1.96911702710848
H            4.35966753162584       -0.64046505053218        0.82626055857994
H            2.54293546236447        0.98334649034035        0.95683866444143
H           -0.50857532915675        1.87849208604095        2.77115449554961
H            0.11420870771017        4.24606157488962        3.19094774305890
H            2.30774720066690        8.73253298724873        1.21041139852056
H            3.38483651275550        9.82356766337623       -0.73297500749698
H            3.80994906333413        8.49764218704348       -2.79010376064945
H            3.14473681386362        6.11725062640226       -2.87043698854021
H            1.24339444253094        2.18464969911466       -1.13424620118105
H           -2.00428949347649        2.23456243201737        0.47003844154160
H           -4.36568753099271        1.71346301244979        0.14012065913797
H           -4.18864484653446       -2.02536032524129       -2.47286010707926
H           -5.53838521875591       -3.36351140442916       -4.03652052959767
H           -7.96090273845885       -3.58728447565983       -3.74551026410133
H           -9.11872112519299       -2.44092073837571       -1.88557869440107
H           -9.76305270796443       -0.95659001984142        0.32885088666502
H           -9.73065807917456        0.49371994966236        2.33149584415914
H           -7.61795060783239        1.38327236491092        3.19623992233047
H           -5.47923894650165        0.88716837991984        2.08491489850453
H           -3.38603316679211       -2.41275641737422       -0.29011498142384
