92
 energy: -145.465933599596 gnorm: 0.000035171225 xtb: 6.7.1 (edcfbbe)
C            0.94007386894048       -3.33048475434102        0.98247955569083
C            0.64663080487924       -2.25654201871480       -0.08186452794467
C            0.74036704280110       -2.86660409410160       -1.49283328738496
C            1.67871979509516       -1.15096325808697        0.03427844205516
C            3.01891540495500       -1.45924460050188       -0.13889528419978
C            4.01282783061403       -0.49122051500175       -0.07591928223676
N            5.35985609792440       -0.84986882440418       -0.25742683272927
C            5.86821053287088       -1.56389394429987       -1.32167153729194
C            5.22254232596066       -2.03893097301173       -2.45521872309378
C            5.97828192142040       -2.71619525761784       -3.39262854363612
C            7.34730848151774       -2.91347834375944       -3.21853118311666
C            7.99947372716674       -2.42390466460541       -2.10429278179187
C            7.26113444775946       -1.74017895909080       -1.14624179555105
C            7.59887511739699       -1.09728810171337        0.09265909245807
C            8.78421290779558       -0.94389477813120        0.80103359095178
C            8.75395192556692       -0.26805263725473        2.00470393468976
C            7.55955728572144        0.24281787245300        2.51042836556918
C            6.36812663843010        0.10381733740268        1.82502914735955
C            6.39501546284236       -0.55884875306917        0.60547625294915
C            3.65424028792264        0.82984960861307        0.16068218084390
C            2.32814899166413        1.15336168125257        0.34719363808974
C            1.32709521406022        0.17780439063743        0.29962665009228
N            0.00306310509031        0.53885554413941        0.49693088575355
C           -0.30842432202772        1.89809954254917        0.76448208546094
C           -0.05383970638674        2.44009010483654        2.02887650827747
C           -0.35595281763849        3.75653567939609        2.28296352086912
C           -0.92495144842825        4.56266091400745        1.29196536246834
S           -1.26200464838710        6.21306139290951        1.74475408849915
C           -1.95634770767520        6.90811858088499        0.29849139210379
C           -2.32498625047756        8.25213910151091        0.38353212095327
C           -2.88396858923936        8.89248151344000       -0.69964802507844
C           -3.08506268643848        8.19881234273639       -1.89024870930572
C           -2.72150511562951        6.87605422939931       -1.97614851862723
C           -2.14946318249146        6.19745256788988       -0.88925739092667
C           -1.79712437504798        4.78485496936341       -1.08886676116362
O           -2.00399951894732        4.23237963951333       -2.16722555699226
C           -1.19241194384044        4.03476664742481        0.02581618376339
C           -0.86645797800139        2.69399517223775       -0.21438937203184
C           -1.02524469333928       -0.38828469012804        0.42008360446689
C           -2.34360142631191        0.01367210414543        0.65706965410939
C           -3.38856844854054       -0.88179025109721        0.59455505195784
C           -3.13584765876797       -2.21282529455016        0.28751673979363
N           -4.18448416306969       -3.14587125510833        0.21084007837051
C           -5.32116695819165       -3.02244211389209       -0.55945774581207
C           -5.68864125868495       -2.01044842065661       -1.43587009312548
C           -6.88722160210022       -2.14424451236288       -2.10981752782923
C           -7.70433665732288       -3.25889791274042       -1.92747281181913
C           -7.33574714721290       -4.27741595880781       -1.07122837166365
C           -6.13470164435482       -4.16663840969799       -0.38171377805530
C           -5.44528040441438       -5.01486317016482        0.54970861442457
C           -5.73561691794529       -6.24791870478593        1.12055148490007
C           -4.83885388653827       -6.78933394300515        2.02013716271201
C           -3.67035200247836       -6.11132172877340        2.36410344686869
C           -3.35928102357954       -4.88442505604383        1.81061878631611
C           -4.24584725564106       -4.34512648606822        0.88834431954593
C           -1.82593919977028       -2.61714272214183        0.06563782584935
C           -0.76045470771360       -1.73343954016351        0.13674836693909
H            1.94548360612660       -3.72533944413708        0.86855974852166
H            0.24090233667583       -4.15756898198780        0.89833097595378
H            0.85033763433307       -2.90111754953968        1.97886386204547
H            0.54354853417490       -2.10198661030819       -2.24255011806459
H            1.72982940430971       -3.27832609259915       -1.67035048971635
H            0.01517460470007       -3.66525723984451       -1.61960538836504
H            3.31713233471789       -2.47938980391410       -0.32352129345729
H            4.16660347529878       -1.87250573309576       -2.60631317444536
H            5.49909560517396       -3.09828247966245       -4.28259550451073
H            7.90350472491547       -3.44980134121709       -3.97360588590133
H            9.06288853896961       -2.56451961505790       -1.97817297428265
H            9.70805292312459       -1.34993554411831        0.41615862861519
H            9.66542179312573       -0.13732838801557        2.56977261133172
H            7.56597735731891        0.75623550598831        3.46119181876468
H            5.44478241322331        0.49067109491128        2.22920525458968
H            4.40970941438531        1.60026494633946        0.18640842606397
H            2.06207833154873        2.18455583657576        0.51753406855377
H            0.38144832108266        1.81894219160249        2.79671317401908
H           -0.16252074888134        4.18657252541072        3.25369350204793
H           -2.16367751113877        8.77643771804887        1.31330409234988
H           -3.16589090734884        9.93138322868913       -0.62257217495224
H           -3.52350487093220        8.69630719053564       -2.74138708389447
H           -2.86444010208334        6.31227301629166       -2.88660352657197
H           -1.07444628678605        2.29667665149636       -1.19745081832376
H           -2.55314472902222        1.04251639990552        0.90371691473619
H           -4.39720883891193       -0.55344745504282        0.79413470321771
H           -5.05556872202177       -1.14977119947084       -1.59255848062572
H           -7.19698741498763       -1.36892659701680       -2.79579529572841
H           -8.63519491013677       -3.32534413676697       -2.47174643391583
H           -7.96395049875052       -5.14613060670135       -0.94024946400135
H           -6.64751776278336       -6.76763999569067        0.86589096960196
H           -5.04527986248000       -7.74827580580882        2.47286380098695
H           -2.99551966208084       -6.55387021170027        3.08264799849808
H           -2.46206082792344       -4.35626693618436        2.09579726488804
H           -1.65031907314236       -3.65417322394574       -0.17410208453317
