52
 energy: -85.811638975661 gnorm: 0.000028675548 xtb: 6.7.1 (edcfbbe)
C            5.85415984027482       -2.79600540196196        0.20123310465189
C            5.84176059198052       -1.72157514200573        1.07568728085338
C            4.83143867988424       -0.77911678947470        1.00826757752524
C            3.82912713363849       -0.90452647590155        0.05146127561100
N            2.80633007717987        0.05755634708958       -0.02576052495227
C            2.99376694390731        1.42478671064820       -0.12151089789703
C            4.17166455148169        2.15085607969439       -0.21055998674215
C            4.07458442022674        3.52614343310926       -0.31996673301867
C            2.83813017310972        4.16698470988313       -0.34982573104924
C            1.66084022827420        3.44719670316475       -0.28427937137048
C            1.73431446650660        2.06467308421696       -0.17321817920879
C            0.75003209501118        1.02249560773655       -0.09999815372894
C           -0.64453726517038        1.00643863924048       -0.08102707258569
C           -1.33069749710603       -0.21345043218146        0.01517656473854
C           -0.58007022089411       -1.40567788504379        0.11029742466294
C            0.80605275395040       -1.42070564379445        0.10809495675414
C            1.45726954770106       -0.20049910732479       -0.01328513622275
O           -1.19520303026729       -2.61069284800790        0.22184292662658
C           -2.54775980100548       -2.74924951215364        0.11706571689824
C           -2.98675652451942       -4.07568352549540        0.14110399308754
C           -4.32596562527228       -4.36317893058169        0.00596821797088
C           -5.23704015801697       -3.32804253450595       -0.17061458145634
C           -4.79930772310084       -2.02171381136364       -0.17882198468187
C           -3.45052106293566       -1.67722413812906       -0.01303518347421
B           -2.85335536987934       -0.24642034428954        0.02798778484217
C           -3.50815110949996        1.15788454211552        0.08517397665686
C           -4.86902399754450        1.44321371320969        0.26777680745346
C           -5.36132920495174        2.72951599044517        0.27844482822713
C           -4.49686281367588        3.80485431362127        0.10511283478749
C           -3.14853305722992        3.57629343695361       -0.04704702738211
C           -2.65364538708218        2.26926598729117       -0.04226242265451
O           -1.29776268109490        2.18664528912437       -0.16229106288912
C            3.84463250846006       -1.98097651542447       -0.82978413536571
C            4.85307767333132       -2.92429105353305       -0.74772560401438
H            6.64227817151711       -3.53167177341188        0.25921280802311
H            6.61815871898999       -1.61977354983522        1.81951286291214
H            4.80608043863633        0.05007694573711        1.69962858127284
H            5.13336835987706        1.66061669150467       -0.20329036663087
H            4.97747007895803        4.11540319167152       -0.38692077679287
H            2.80375954836370        5.24343416393732       -0.43381305970856
H            0.70059446496296        3.93744617142032       -0.32166649476683
H            1.33788779967477       -2.35313512357109        0.20348676838722
H           -2.25104994040518       -4.85752236103756        0.25684150024097
H           -4.66198429151478       -5.38944935788446        0.02341257957648
H           -6.28612766208186       -3.54990803153605       -0.30079507605520
H           -5.51847333966251       -1.23409172046295       -0.33617127868358
H           -5.55236948501727        0.62397854144601        0.42265520497998
H           -6.41745319965827        2.90544878290939        0.42121208271408
H           -4.87663813044849        4.81585427490374        0.10274966624646
H           -2.44983809634201        4.39133359019629       -0.16129028818108
H            3.07290276589410       -2.06573151890734       -1.58027821113058
H            4.86077264259461       -3.75808141344218       -1.43416798505747
