52
 energy: -85.714376506162 gnorm: 0.000071146781 xtb: 6.7.1 (edcfbbe)
C            5.88448915194714       -2.93793656430756        0.14673628983518
C            5.91999622672792       -1.85913063668738        1.01672938416319
C            4.93547306818445       -0.89015909739039        0.96751039370148
C            3.90601545261088       -0.99339018529847        0.03403458451420
N            2.90619183360477       -0.00997139570740       -0.02098407055779
C            3.10676038737269        1.34201375960516       -0.07767078819713
C            4.29513774952232        2.06199490509148       -0.15748986810951
C            4.21191638915756        3.43733703764117       -0.23573015622984
C            2.97629298128146        4.10118212746938       -0.23943950525499
C            1.79226049418567        3.40343476404985       -0.18441363602528
C            1.84301108055412        2.00804658744438       -0.10960554963888
C            0.85110953680814        0.99664220943078       -0.06718848793309
C           -0.55781894881462        1.00541140573672       -0.05191329132027
C           -1.27688473432617       -0.20100808843442        0.00495878781887
C           -0.54885279785336       -1.40019697144400        0.05839963045689
C            0.85797256498306       -1.44963042250819        0.06387693250602
C            1.53809038267154       -0.25056145215728       -0.01927988752107
O           -1.17111796071086       -2.59865853933622        0.11963360796202
C           -2.53135497325355       -2.72145567236712        0.03841580026162
C           -2.97804954684385       -4.03937413925375        0.03086596294014
C           -4.33120492283891       -4.31479353665361       -0.08266485019517
C           -5.22601653456069       -3.25649216530270       -0.20705858428594
C           -4.77791309139424       -1.95131294181316       -0.19275376249378
C           -3.41935638603206       -1.61336593516679       -0.04265085691257
B           -2.80631847218405       -0.20344310300203        0.01771828101509
C           -3.42438162566269        1.20776554406217        0.08960664615557
C           -4.78036903692579        1.53871447856410        0.25764537517446
C           -5.23376718894415        2.84425006036017        0.28949673396518
C           -4.34521404264976        3.90407529285300        0.16466447268901
C           -2.99175793772756        3.63298877337032        0.03222220370454
C           -2.54221586435220        2.31647379249411        0.00752961711836
O           -1.18002054866979        2.19879341316224       -0.08970342321534
C            3.87244609995533       -2.07613209999392       -0.84220973364314
C            4.85822163037520       -3.04327672489789       -0.77922412469999
H            6.65339785463252       -3.69422317236079        0.19077433927999
H            6.71430485455543       -1.77633057803655        1.74359376549063
H            4.94488422760705       -0.06169921635558        1.65984107771055
H            5.25015071160234        1.56049552094945       -0.17234542264227
H            5.11921513652725        4.01907388925797       -0.29998348101397
H            2.96243809959886        5.17932168373000       -0.29770724189068
H            0.83783441773581        3.90459256654118       -0.20304435483889
H            1.35589341826316       -2.40242125211953        0.14395831413160
H           -2.24914498904503       -4.83263373409128        0.10659224829305
H           -4.67930543896346       -5.33624082089877       -0.08742276486234
H           -6.28250307746412       -3.46010118453457       -0.31409181952023
H           -5.49588547264809       -1.15580920623995       -0.31022189753497
H           -5.49511643545290        0.74046453875292        0.37617323202625
H           -6.28984683579372        3.04195498599834        0.41060975087896
H           -4.69490591460595        4.92493342962980        0.18150047342158
H           -2.26841465166395        4.43090962798719       -0.04553286719914
H            3.08546244154425       -2.14171832789001       -1.57835650909160
H            4.82941243863413       -3.87900973227768       -1.46250425486837
