  52
        -85.77820137
 C          5.8629836245       -2.9347130059        0.1537206217
 C          5.8930930821       -1.8611489964        1.0283519841
 C          4.9069230369       -0.8933998813        0.9788755638
 C          3.8842248834       -0.9913580276        0.0402090156
 N          2.8840459708       -0.0088214667       -0.0152026672
 C          3.0966060199        1.3567048552       -0.0856436456
 C          4.2860284186        2.0637169861       -0.1651810820
 C          4.2116616915        3.4417612420       -0.2549019998
 C          2.9868029786        4.1038335674       -0.2736909276
 C          1.7976820982        3.4035077103       -0.2178205874
 C          1.8490480659        2.0192600715       -0.1273000251
 C          0.8462580223        0.9943224057       -0.0751979895
 C         -0.5480320457        1.0068114575       -0.0582328571
 C         -1.2561988403       -0.2018561913        0.0128248246
 C         -0.5304567925       -1.4101204085        0.0903943473
 C          0.8554166683       -1.4515868455        0.0920670581
 C          1.5291196166       -0.2426448575       -0.0099312213
 O         -1.1688988484       -2.6023816967        0.1799819292
 C         -2.5200994441       -2.7125903728        0.0643606285
 C         -2.9861035975       -4.0300224530        0.0646208450
 C         -4.3283650896       -4.2887363180       -0.0891612818
 C         -5.2172234568       -3.2336151959       -0.2600849100
 C         -4.7544935437       -1.9365150159       -0.2421575163
 C         -3.4015186331       -1.6219334983       -0.0566784499
 B         -2.7779181420       -0.2053921677        0.0174252170
 C         -3.4052624398        1.2088318795        0.1022620906
 C         -4.7605506813        1.5155983509        0.2866252738
 C         -5.2276022221        2.8104451561        0.3262262644
 C         -4.3417052506        3.8721516811        0.1821129645
 C         -2.9981812195        3.6213030396        0.0280412205
 C         -2.5284507646        2.3054471825        0.0024873452
 O         -1.1767078197        2.1991633716       -0.1158401153
 C          3.8585933308       -2.0667901655       -0.8423025216
 C          4.8434426146       -3.0351891004       -0.7781977517
 H          6.6319993123       -3.6908696934        0.1982108341
 H          6.6840219439       -1.7808174973        1.7592051213
 H          4.9138922642       -0.0662088589        1.6727255173
 H          5.2399286521        1.5582580190       -0.1685436845
 H          5.1242529183        4.0162361167       -0.3153445766
 H          2.9715077811        5.1814019897       -0.3426297953
 H          0.8456593179        3.9091481385       -0.2480124270
 H          1.3687071897       -2.3951442376        0.1766921156
 H         -2.2678688047       -4.8279788880        0.1757711275
 H         -4.6859159370       -5.3076913155       -0.0908992124
 H         -6.2686512877       -3.4330738632       -0.4059875980
 H         -5.4568292348       -1.1325346524       -0.3948777118
 H         -5.4605894352        0.7065024360        0.4209517536
 H         -6.2806037195        3.0032117755        0.4696340292
 H         -4.7026117205        4.8896881807        0.2028333482
 H         -2.2832306564        4.4245468994       -0.0642608250
 H          3.0742051637       -2.1303938613       -1.5812705983
 H          4.8186141381       -3.8678892576       -1.4653375225
