106
 energy: -162.531704570894 gnorm: 0.000050254364 xtb: 6.7.1 (edcfbbe)
C           -1.79283788891734       -2.30080532826944       -0.03526494854954
C           -2.61407939767709       -1.23477916143350       -0.03230361193819
C           -4.07267326006375       -1.37004361525901       -0.02974986007977
C           -4.86809047271695       -0.41323205125401       -0.66261443886104
C           -6.24253326588620       -0.52484368467206       -0.67145266113387
C           -6.86182719193815       -1.60337541606906       -0.04427381360071
N           -8.25647994128531       -1.72262322112118       -0.05382401649191
C           -9.05687984538304       -1.95281305793477        1.04815348024364
C           -8.70895789669626       -2.05999018291771        2.38710239324059
C           -9.72302997147776       -2.26561418456697        3.30281453559359
C          -11.05534706969996       -2.35455746522117        2.90569966815075
C          -11.41022749658440       -2.22337111366659        1.57810725039593
C          -10.40864187985948       -2.01621484080322        0.63891948389121
C          -10.41420477890102       -1.81965633785143       -0.78368160725876
C          -11.42042156810098       -1.79548198822135       -1.74031562074800
C          -11.07205056956109       -1.60160396175123       -3.06193064274602
C           -9.73886681243178       -1.44842597136095       -3.43595133488451
C           -8.72021721739275       -1.46867401050020       -2.50262898877398
C           -9.06633698897831       -1.63853286926895       -1.16975453618445
C           -6.07808402708984       -2.56079331560490        0.59528635053251
C           -4.70409379915819       -2.44074048733449        0.60417928160276
C           -2.06458992675518        0.13371659350555       -0.07927458895821
C           -1.12209697203397        0.47407654183699       -1.04750312186629
C           -0.52932170143291        1.71813841306470       -1.04532033331683
C           -0.85980804409637        2.64793844615392       -0.06197085657462
N           -0.18274786798919        3.87237992488907       -0.00960804682475
C            1.19104562465425        4.01465744752148       -0.02132914435012
C            2.17955001358371        3.04080588629061       -0.05104745833064
C            3.49614378521643        3.45917117094771       -0.02908139455419
C            3.82965410173997        4.81057408123688        0.03101883271918
C            2.85043183875792        5.78186073504141        0.08662229397374
C            1.51917676339637        5.38690305212872        0.06532041334839
C            0.27431392903499        6.10051433782656        0.12834096587358
C           -0.05182704363454        7.44800028700619        0.20585170810325
C           -1.38497577687290        7.80560852509390        0.22988225033868
C           -2.38729805728529        6.84028081473419        0.16325083477770
C           -2.08824581804036        5.49360410601818        0.08558655267479
C           -0.75020785176019        5.12680740731004        0.08437330602180
C           -1.84192713453145        2.33590791063999        0.87352780085452
C           -2.44588505147701        1.09373614956423        0.85373337489103
C           -0.33827459386668       -2.23036687926679        0.03833258255025
C            0.44676277246179       -3.07079383866422       -0.75087399021085
C            1.82330752424681       -2.97651766830920       -0.73450216169030
C            2.46642112861673       -2.05110037829070        0.08578240974572
C            3.92804862857668       -1.91847555064260        0.07903985222621
C            4.52397458148186       -0.66123482530112        0.17038146907357
C            5.89649687072700       -0.52263135494565        0.15815075066691
C            6.71190159393488       -1.64577911890327        0.04754483762947
N            8.10551816093630       -1.50875879650202        0.02454007855216
C            9.00131629463475       -2.21602699753997        0.80186508301083
C            8.76143436365082       -3.15094325906223        1.79880019263118
C            9.85235229851882       -3.69450350664350        2.44948198387428
C           11.15424459617319       -3.31631047566691        2.12857576374215
C           11.39811609563234       -2.36827333979741        1.15530563509521
C           10.31774518131737       -1.80717579349328        0.48733300319656
C           10.20079583532621       -0.80638011606848       -0.53578554174455
C           11.12723817744555       -0.05707353251201       -1.24892024867299
C           10.66822454692539        0.82665507069205       -2.20486154774052
C            9.30565920021087        0.95658554158365       -2.46430826086581
C            8.36492664658530        0.22166722329507       -1.76865714880014
C            8.81861370841198       -0.65017316161729       -0.78906889015714
C            6.12698802632134       -2.90600898343047       -0.04309004648826
C            4.75331291042160       -3.03679413502118       -0.02443876548368
C            1.68338863832152       -1.24799332132053        0.91511279131454
C            0.30887732895728       -1.33729707212162        0.89479754774220
H           -2.21202956059676       -3.29441177876030       -0.12848838894891
H           -4.39744176466990        0.42422045648642       -1.15701047353477
H           -6.84724389750604        0.23030311744121       -1.15103972732140
H           -7.68164851620522       -1.97402936885246        2.70790682896953
H           -9.47721883162421       -2.35579044102924        4.35073176376026
H          -11.81840294227095       -2.51893142243664        3.65189139036701
H          -12.44410278873920       -2.27533204103640        1.27169464031529
H          -12.45187272310313       -1.93091962255854       -1.45176839829680
H          -11.83920566263813       -1.57721933100017       -3.82151114463704
H           -9.49526074588898       -1.31454762324937       -4.47969382917615
H           -7.68884047694204       -1.36749662739189       -2.80539852411565
H           -6.55406676479610       -3.40343793587302        1.07425544948023
H           -4.11112859476653       -3.18084295023146        1.12040853228139
H           -0.85417094159607       -0.24815060207600       -1.80421052046250
H            0.19468400728026        1.97953452471559       -1.80235266029880
H            1.92710130914405        1.99072387077856       -0.08179770224735
H            4.28719240491432        2.72392415202026       -0.05761629160825
H            4.87093963488364        5.09633709088932        0.04307611842474
H            3.10908263778349        6.82806404905597        0.14972376416112
H            0.72485487824190        8.19698392737604        0.24220370931798
H           -1.66011480329450        8.84793908855032        0.29233808849245
H           -3.42150004014598        7.15178204980331        0.16894842361580
H           -2.87184868108469        4.75401813679804        0.01696597697684
H           -2.10541313583633        3.05790685264322        1.63194091429397
H           -3.19288729868128        0.84697170153219        1.59469121825778
H           -0.03467454513224       -3.78307543282250       -1.40638230317853
H            2.40871759851427       -3.60964927563832       -1.38531412350742
H            3.90181891960442        0.21858419008613        0.24013821268013
H            6.34772951479036        0.45454236827905        0.24672290663095
H            7.75589391478583       -3.43725699828689        2.06827774910389
H            9.69172927297214       -4.42656274886229        3.22731453856253
H           11.98030501550711       -3.76693284010172        2.65841355986398
H           12.40591165775287       -2.06242925648221        0.91782289499073
H           12.18391606561004       -0.17043438706006       -1.05882201658441
H           11.37171746074518        1.42097412563059       -2.76881768186915
H            8.97689642501416        1.64465199257934       -3.22928732232032
H            7.31278963494654        0.31628199897747       -1.99158850287733
H            6.75592174564454       -3.77824802999223       -0.14154786375349
H            4.31331160312737       -4.02161456593120       -0.07876213318137
H            2.16166991323764       -0.56009689017657        1.59738183331107
H           -0.27600188554990       -0.71913881951220        1.55913796361141
