106
 energy: -162.465813011806 gnorm: 0.000060243147 xtb: 6.7.1 (edcfbbe)
C           -1.87905400537212       -1.78598691646225       -1.18238225481272
C           -2.71666788719536       -0.67852833116891       -0.76266235260359
C           -4.10331411573143       -0.90249938640919       -0.52419298705393
C           -5.06021406883501        0.12907865795990       -0.63878454433431
C           -6.39866345940537       -0.11633588157603       -0.45890503435409
C           -6.85046461497155       -1.40237580167593       -0.14992826232999
N           -8.21421256928468       -1.64936470060847        0.02759223679217
C           -8.78251483648691       -2.33339818842560        1.08451444183850
C           -8.18204029124174       -2.87381241223004        2.21296396271806
C           -8.99617520349428       -3.48739782473151        3.14578912925709
C          -10.37668410071714       -3.55730029691742        2.97320496931004
C          -10.98283334999010       -2.99805961223323        1.86555969627848
C          -10.18563240538094       -2.37689212288890        0.91406662036946
C          -10.46893482044225       -1.68827260971105       -0.31441767776369
C          -11.63953889888508       -1.42407281354577       -1.01213306568465
C          -11.55604038524714       -0.74272314798581       -2.21034870854256
C          -10.32373857271797       -0.34236363824399       -2.72179286684767
C           -9.14521469105872       -0.59374643881212       -2.04558058818329
C           -9.22495237528477       -1.25332676696252       -0.82708553397435
C           -5.91991316622694       -2.43963632349848       -0.03718568892421
C           -4.58268255066783       -2.19704614077539       -0.22660263213502
C           -2.10720811511195        0.61421054751264       -0.63765801869881
C           -0.98850057602321        0.95879301190479       -1.42581099833349
C           -0.29548950353078        2.12327279486716       -1.21378288927906
C           -0.67619771725755        2.99650100321025       -0.19228060651063
N            0.09513565624638        4.12762013617420        0.08148324198557
C            1.46862151011110        4.13054276914702        0.23428457468061
C            2.36367354370718        3.07004319078373        0.20067338161856
C            3.70001727568551        3.34765163961290        0.41624893175079
C            4.14222658025914        4.64389550592759        0.67090811194461
C            3.25267985173270        5.69814568082663        0.73381429323148
C            1.90456699958466        5.44477068203125        0.51970735469183
C            0.72875406856243        6.27037118816754        0.53375674253560
C            0.51747095018285        7.62756358715275        0.73392927107869
C           -0.77222244542243        8.11500211760153        0.65482693623101
C           -1.84101249737189        7.27020381284201        0.36418364547668
C           -1.65585164126036        5.91611188005265        0.16023624177634
C           -0.36561506990546        5.41612589749359        0.26389562357848
C           -1.81140480803093        2.69873016934238        0.56645692421461
C           -2.51783732762644        1.54196936755503        0.34046380558320
C           -0.54919157382599       -1.95370584466462       -0.82173239660652
C            0.28085165306901       -2.88038984035066       -1.51799933533680
C            1.62917375903323       -2.92179731777744       -1.31299388224635
C            2.25832886693630       -2.07115633454670       -0.38131697730151
C            3.70389230791197       -2.03717242480176       -0.23694215261538
C            4.35345091722656       -0.84928925456872        0.12212483811354
C            5.72483012207841       -0.78724262828086        0.22732146045357
C            6.50104665218488       -1.91744827612732       -0.02389072321784
N            7.89582158754291       -1.84918091974904        0.06018531667120
C            8.71299575149893       -2.72831959334220        0.74325962757695
C            8.37481432049187       -3.81404517920597        1.53852255427345
C            9.40084395039045       -4.51863112030934        2.13858398829361
C           10.73382614177863       -4.15301437005120        1.96498292888617
C           11.07498586861827       -3.05789821497089        1.19650826780658
C           10.06144688904665       -2.33418011483696        0.58298578380333
C           10.04818748334409       -1.16082657886408       -0.24525104435171
C           11.04624757302873       -0.34332458208721       -0.75836288527175
C           10.68339014852646        0.71787968390014       -1.56358698821490
C            9.34632831122197        0.95805532321140       -1.87192051740814
C            8.33560732857070        0.15833662636267       -1.37376986551723
C            8.69189484975399       -0.89420736239312       -0.54247107766691
C            5.86889913342983       -3.11097109198436       -0.36866739331847
C            4.49629907232346       -3.16665512270728       -0.47278351735552
C            1.43095335343535       -1.24294097526332        0.40046741666747
C            0.08128894836927       -1.19245583184749        0.20844628163651
H           -2.30985698791926       -2.49370853190980       -1.87948987933844
H           -4.73518342567987        1.12187734874471       -0.91071272225553
H           -7.11393843495865        0.68867854155876       -0.54272231236956
H           -7.11557118315547       -2.80766405210659        2.36636426566544
H           -8.55216989199628       -3.91867163043443        4.03088468767151
H          -10.97825196646003       -4.04769979863410        3.72398250210312
H          -12.05444111916286       -3.03604379272718        1.74028425061946
H          -12.59251198598304       -1.75143522356239       -0.62465298104841
H          -12.45482023757620       -0.52454936455226       -2.76769837019942
H          -10.28773963049978        0.17243431729897       -3.67060635244548
H           -8.19422047504328       -0.29726232248053       -2.46142087620666
H           -6.26721948431302       -3.43951841137357        0.17793584942511
H           -3.87286965313905       -3.00534792888850       -0.12959767115805
H           -0.69014284491562        0.30155881522142       -2.22831183705581
H            0.54553084033798        2.37801333674978       -1.84139388764176
H            2.02549358361119        2.06003893228818        0.02155259407191
H            4.41976306273301        2.54254473937326        0.38951007596412
H            5.19553738244526        4.81983376461010        0.83096856437420
H            3.59313965157161        6.69955054994244        0.94976340699148
H            1.34783941555673        8.28534191853504        0.94195479097913
H           -0.95857614450590        9.16725548119780        0.80976177728834
H           -2.83626766732514        7.68345479937803        0.29218111272193
H           -2.48778310991974        5.27333890823056       -0.08457810241806
H           -2.10212115659873        3.36326020612344        1.36674361985755
H           -3.35265929991536        1.29668238918331        0.98021625071579
H           -0.17419203537618       -3.51735568369750       -2.26340712096213
H            2.23403347913859       -3.58989018633652       -1.90840004778204
H            3.77194711849244        0.04289568781533        0.29812975984231
H            6.20875850643283        0.13420731644843        0.51600309722113
H            7.34413911809406       -4.09409142925219        1.69586214284579
H            9.16338586771501       -5.36981404266828        2.75962988581339
H           11.50692365782625       -4.73142831359031        2.44855939871148
H           12.10664105956923       -2.76349320833802        1.07591587965859
H           12.08354635454803       -0.54073628166915       -0.53357046156711
H           11.44377117604378        1.36750297628533       -1.97091183552360
H            9.09356912301630        1.78554229447838       -2.51845046127647
H            7.30468997475589        0.34181187668495       -1.63644182978834
H            6.46543090721386       -3.98780975497719       -0.57257605009304
H            4.02721176733927       -4.10548910639348       -0.72588478956507
H            1.87224919565269       -0.65921863454256        1.19571231382670
H           -0.53015275478408       -0.58611523617983        0.85838898796902
