  110
       -152.64582223
 C          6.4692335488       -5.1174826717       -1.2091267633
 C          6.7072280880       -3.7895605092       -1.9422271553
 C          8.1832723318       -3.4157014654       -1.7808592978
 C          6.4205992313       -3.9634493753       -3.4403186901
 C          5.7718291200       -2.7321036170       -1.3750261714
 C          4.3888124271       -2.9419881078       -1.4522170099
 C          3.4645997938       -2.0404188858       -0.9644087524
 C          3.9373063387       -0.8754337837       -0.3814426383
 C          5.3245139153       -0.6494217793       -0.2719840658
 C          6.2322814225       -1.5734903504       -0.7718188021
 C          5.4818170445        0.6009565326        0.4194115497
 C          6.5954939680        1.3437176213        0.7876580331
 C          6.4294793926        2.5553214312        1.4380578501
 C          7.6036492768        3.4202244086        1.8726747871
 C          8.9562697916        2.7848599561        1.5385767498
 C          7.5233485871        4.7752471307        1.1552953026
 C          7.5394166599        3.6305841455        3.3922024026
 C          5.1270270042        3.0049994973        1.6922052755
 C          4.0025994528        2.2869599377        1.3381588296
 C          4.1825947863        1.0647154509        0.7101876069
 N          3.2531136969        0.1658067363        0.2197820107
 C          1.8687279471        0.2718881274        0.3286649638
 C          1.2736492222        0.5727575454        1.5551742867
 C         -0.0980018428        0.6860583817        1.6555741600
 C         -0.9112987814        0.4656309083        0.5481158752
 N         -2.2958920077        0.6103702000        0.6502821417
 C         -3.0894638489        1.3485147535       -0.2078766030
 C         -2.7300543694        2.2704906019       -1.1776214483
 C         -3.7412656252        2.8630017415       -1.9059618351
 C         -5.0977836692        2.5801135407       -1.6942918941
 C         -6.1330222860        3.2582625185       -2.5785230781
 C         -6.0007911982        4.7818934134       -2.4470883361
 C         -5.8880797169        2.8350387186       -4.0339418157
 C         -7.5666502936        2.8717376379       -2.2057314676
 C         -5.4429857019        1.6828224789       -0.6976663852
 C         -4.4462838176        1.0678674420        0.0478741515
 C         -4.4681955610        0.0913869811        1.1025076846
 C         -5.4927136055       -0.6111603654        1.7214359841
 C         -5.1903835004       -1.5651462634        2.6791907265
 C         -6.2597255411       -2.3920381409        3.3768838349
 C         -7.6752026949       -2.0239011989        2.9236822204
 C         -6.1712059958       -2.1639594753        4.8925550423
 C         -6.0255750967       -3.8752827337        3.0566350275
 C         -3.8459587402       -1.7920032159        3.0008879996
 C         -2.8074213510       -1.1086695702        2.4027476240
 C         -3.1243943940       -0.1591781668        1.4456863379
 C         -0.3221253549        0.1226119918       -0.6780431050
 C         -1.1316125326       -0.2218594444       -1.8760647311
 O         -0.7902536288        0.0616602655       -3.0053976343
 C         -2.3537212592       -1.0247686712       -1.6125211679
 C         -3.5409603141       -0.8050019422       -2.3154819861
 N         -4.6181878375       -1.5410785922       -2.1227435028
 C         -4.5317202951       -2.5025889051       -1.2199666736
 N         -3.4663136064       -2.8106442312       -0.5046361638
 C         -2.3839032501       -2.0792277690       -0.6994166407
 C          1.0612877088        0.0642339731       -0.7843757908
 H          7.1480248444       -5.8801096036       -1.5848724981
 H          5.4513608269       -5.4710150391       -1.3477833552
 H          6.6444842983       -4.9941067422       -0.1422930439
 H          8.8045877555       -4.2006464187       -2.2072523928
 H          8.4106800512       -2.4879506632       -2.3008435359
 H          8.4479221428       -3.3117623845       -0.7310817529
 H          6.5716155770       -3.0212802453       -3.9632449524
 H          7.0909204036       -4.7066667022       -3.8667527285
 H          5.3985985996       -4.2882604402       -3.6140559516
 H          4.0156517898       -3.8466976160       -1.9064868606
 H          2.4077555911       -2.2521313572       -1.0287073438
 H          7.2844420353       -1.3690659298       -0.6703378523
 H          7.5726670580        0.9592650254        0.5498494461
 H          9.0701184620        2.6474196440        0.4657261164
 H          9.7573428605        3.4376725771        1.8793368856
 H          9.0709218898        1.8246622343        2.0363944454
 H          6.6084434544        5.3044962508        1.4067738097
 H          7.5474213192        4.6312160618        0.0770178837
 H          8.3671620955        5.4005220569        1.4392371618
 H          8.3876158035        4.2253386696        3.7244420354
 H          6.6288053270        4.1460772386        3.6844692807
 H          7.5678935921        2.6715666810        3.9055781425
 H          4.9818544800        3.9556180529        2.1819671376
 H          3.0162643414        2.6802357179        1.5348894476
 H          1.8952468445        0.7167587907        2.4254555145
 H         -0.5550845189        0.9488291854        2.5977092805
 H         -1.6956491561        2.5145081517       -1.3686290341
 H         -3.4609838128        3.5692382754       -2.6715063834
 H         -6.7522906782        5.2765655973       -3.0585782960
 H         -6.1448544826        5.0833074895       -1.4115430368
 H         -5.0223098162        5.1264693061       -2.7689795569
 H         -4.8983815611        3.1306730517       -4.3708150912
 H         -5.9730825653        1.7542983214       -4.1275296231
 H         -6.6236027205        3.2977091234       -4.6884648624
 H         -8.2631947278        3.3868698769       -2.8639745300
 H         -7.7242432069        1.8021427823       -2.3207970864
 H         -7.7955619985        3.1601264699       -1.1823799293
 H         -6.4698520396        1.4391922730       -0.4871374240
 H         -6.5078983859       -0.4063314945        1.4274089280
 H         -7.8968229586       -0.9811991088        3.1398743224
 H         -7.8043148129       -2.2037031351        1.8588998302
 H         -8.3975499644       -2.6380842625        3.4575157257
 H         -6.9410744300       -2.7384990508        5.4031357362
 H         -6.3164645036       -1.1105758420        5.1233845812
 H         -5.2050446537       -2.4680803422        5.2851741988
 H         -6.0388994180       -4.0332079771        1.9803597506
 H         -5.0662615677       -4.2162237721        3.4350549482
 H         -6.8060128001       -4.4844361170        3.5076828492
 H         -3.5973517633       -2.5384538517        3.7388261505
 H         -1.7815411201       -1.3245854720        2.6627127730
 H         -3.6159988858       -0.0025044894       -3.0364893207
 H         -5.4178477803       -3.1014735574       -1.0578228392
 H         -1.5076013484       -2.3591914576       -0.1279559965
 H          1.5020796108       -0.1576405399       -1.7435594564
