110
 energy: -152.701074777371 gnorm: 0.000035997903 xtb: 6.7.1 (edcfbbe)
C            6.72430266302341       -5.04467311947349       -1.40535348023082
C            6.92334118820412       -3.67277996137890       -2.06707678101378
C            8.37943796754380       -3.24856322626521       -1.85146516976109
C            6.67880772432801       -3.78431540259292       -3.57946275273040
C            5.93180163883783       -2.68142510782186       -1.47348327268961
C            4.55999579558637       -2.94175022778059       -1.59061345543787
C            3.58921380658226       -2.09785378809378       -1.08857388848588
C            3.99984402464006       -0.93813312440252       -0.45028021545497
C            5.37434046312891       -0.66430341222240       -0.29719485391060
C            6.32983293124859       -1.53126201065811       -0.81124413055770
C            5.46819285232166        0.56567563317179        0.44248822057174
C            6.54554046431305        1.33297398635787        0.86667423131444
C            6.32083220285560        2.51459696496023        1.55461237237739
C            7.45209624758994        3.40190419200333        2.05607645849254
C            8.83590194213721        2.83068816053486        1.73144032172306
C            7.34036359253938        4.78409043881206        1.39527077332404
C            7.34215699965664        3.54407845019356        3.58161147964110
C            4.99649828840069        2.91000589031182        1.78614972667949
C            3.90752595016282        2.16655216851280        1.37659652561910
C            4.14647732374913        0.97222058968460        0.71509588084594
N            3.26048688477435        0.05525240611407        0.17175248919827
C            1.87075454765623        0.11760858643321        0.24975616578572
C            1.24013426200932        0.38198885201448        1.46904463378190
C           -0.13418435282446        0.47225338012202        1.54126595981808
C           -0.92332770695909        0.25493387951663        0.41401568625996
N           -2.31057662265316        0.39400664924315        0.49353862823386
C           -3.10133583683821        1.16537809580017       -0.34236357040136
C           -2.74078865024248        2.06083677675604       -1.33666720319403
C           -3.75073384188320        2.71848386296734       -2.00992653069301
C           -5.10939970832842        2.52521687426596       -1.72413235960422
C           -6.14732735606737        3.28789914056945       -2.53574089761186
C           -5.91473341990681        4.79674376875363       -2.36561052656648
C           -6.00777035307299        2.90202519629782       -4.01593242135465
C           -7.58149028340488        2.97538015703543       -2.09781398379048
C           -5.45285046252988        1.64753869901358       -0.70871826198143
C           -4.45804571113625        0.97079456861896       -0.01495985910493
C           -4.48648028311565        0.02410892742369        1.06772709069998
C           -5.52062870105771       -0.57565410481255        1.77458390543565
C           -5.23152532443997       -1.50120620982305        2.76439134336878
C           -6.31357159904055       -2.20598349733857        3.57032876227818
C           -7.72553249186317       -1.76555559587080        3.17185236012134
C           -6.11940543608466       -1.89168905908702        5.06125863788096
C           -6.20253573472449       -3.72021250783744        3.33742934414999
C           -3.88872921347250       -1.80897173145864        3.02149953032383
C           -2.84134962043846       -1.22900982572775        2.33539403026180
C           -3.14553703995733       -0.29879311044936        1.35492973533119
C           -0.30019219165291       -0.06278369186259       -0.80352801837527
C           -1.06503532125147       -0.40678472467490       -2.02318095951293
O           -0.67112089392811       -0.14373381999050       -3.14525005942077
C           -2.31885886872852       -1.17675818422230       -1.82059634301551
C           -3.44304982883682       -0.94813580376797       -2.61790074913029
N           -4.55483721617368       -1.64546279396182       -2.48538711603382
C           -4.56321897881042       -2.58081997775585       -1.55087782787533
N           -3.55677541204957       -2.90679900780930       -0.76167125813030
C           -2.43869247791161       -2.21708576601661       -0.89831865100611
C            1.08940647103136       -0.08678198120586       -0.88161337034372
H            7.44507137336163       -5.75831311336512       -1.79935189629434
H            5.72661217573016       -5.43391092455796       -1.58900361658723
H            6.86731701783517       -4.96727331570778       -0.32913942020113
H            9.04141193924753       -3.98789049179971       -2.29817557709236
H            8.58139626269883       -2.28925267575054       -2.32267427423716
H            8.61548611987874       -3.18392286929440       -0.79167401432178
H            6.80101350468814       -2.81194672388231       -4.05313491386711
H            7.39073111675843       -4.47684547436868       -4.02409178775963
H            5.67600604356976       -4.14325374942495       -3.79478755833431
H            4.23222197638451       -3.84065896447119       -2.09028282842659
H            2.54385167443071       -2.35021459609376       -1.18857851144855
H            7.37054381138157       -1.28911168805888       -0.67688607627950
H            7.54172134896910        0.99071646227970        0.64226229861208
H            8.98127373006144        2.74385693264061        0.65697198110136
H            9.60334669449874        3.49708680310755        2.12064048212617
H            8.97414742277917        1.85474882033484        2.19138390450857
H            6.40376272280200        5.27249575538218        1.64995236957753
H            7.39078760157288        4.68834447393337        0.31219894248830
H            8.15740755709048        5.42334293276942        1.72372698227184
H            8.15191835089218        4.16530773756674        3.95900157344535
H            6.40017723269296        4.00143577737564        3.87160077504814
H            7.40704755884541        2.56658169080541        4.05591704156094
H            4.80413952868091        3.83780731172323        2.30295837386817
H            2.90413594527216        2.52164830235588        1.55802508339842
H            1.83786910022988        0.52101237678794        2.35645805602694
H           -0.61422137042857        0.71733382396181        2.47636629823672
H           -1.70509498220254        2.24335322200751       -1.58554181358080
H           -3.46508908199704        3.40909645170663       -2.78851850214053
H           -6.66872994442340        5.35482259427534       -2.91674177206837
H           -5.98080963088960        5.07122035543435       -1.31450012150515
H           -4.93656182382658        5.09333537467421       -2.73414002630335
H           -5.02078904666818        3.14599602310193       -4.39990543683535
H           -6.16914602250039        1.83306232488260       -4.14182335067787
H           -6.74558666185541        3.43493138152466       -4.61204136561347
H           -8.27800354747134        3.54098827629110       -2.71349788905405
H           -7.80586893101195        1.91840070265654       -2.22159801633812
H           -7.74426924926283        3.25808047179997       -1.06023123119479
H           -6.47995002969822        1.47253066343695       -0.43740475335655
H           -6.53454905154243       -0.31102552022504        1.52631447305018
H           -7.86422444798853       -0.69914843764582        3.33513895037448
H           -7.92795879510878       -1.99730917280530        2.12859326357414
H           -8.45487884976432       -2.29594533553994        3.78093632335440
H           -6.89609973539723       -2.37607980292893        5.64935008729095
H           -6.17756035899062       -0.81803705044412        5.22999377714377
H           -5.15499956989398       -2.24108736864193        5.41901871552532
H           -6.29481048329507       -3.94464074478463        2.27653469997778
H           -5.24814269499244       -4.10689034684662        3.68333200530324
H           -6.99473666744539       -4.23987866063207        3.87244997951969
H           -3.64876538711965       -2.53511126031448        3.78240122901396
H           -1.82032698708241       -1.50451774908307        2.55302652752910
H           -3.43623783881010       -0.16973347958362       -3.36946516017798
H           -5.48049619794735       -3.14155965727939       -1.42886940612610
H           -1.61070266512121       -2.51877582464651       -0.26858775989222
H            1.54872132208983       -0.28015324604257       -1.83948213395138
