110
 energy: -152.637684557386 gnorm: 0.000064436268 xtb: 6.7.1 (edcfbbe)
C            7.16947453516940       -4.90531038453837       -1.28778530554750
C            7.34133164626806       -4.05825018202410       -0.01751971076090
C            7.24783123088808       -4.95807785349223        1.22446232305151
C            8.73885836916177       -3.43205845182861       -0.04834287453562
C            6.23449932038539       -3.01728868417840        0.04390698952885
C            4.90066224398018       -3.44440535078653        0.06934949662363
C            3.83319512877377       -2.57053406669591        0.13579243268325
C            4.10671226113672       -1.21111491876745        0.19418643557311
C            5.44068627331919       -0.75371913004609        0.13617110680949
C            6.49350104160504       -1.65097514682374        0.06668342686176
C            5.37842902483936        0.68738929601653        0.14627676371109
C            6.35150588393256        1.67246981237897        0.12025152340448
C            5.97756847808505        3.01151013663695        0.15766232816649
C            6.99112969072637        4.14424907248298        0.11508553037395
C            6.86329220602808        4.98340998493470        1.39561985364007
C            8.43473805502493        3.64137288357442        0.01638165481317
C            6.70571278947231        5.02219643878078       -1.11316423430471
C            4.61425302939359        3.32202576786652        0.24584721492452
C            3.62441062732230        2.35947966640463        0.27672284189069
C            4.00974322282726        1.02801404800803        0.20272609066109
N            3.24941036570242       -0.12656502540841        0.23908499356153
C            1.86108796698052       -0.18568376335761        0.28625771706928
C            1.21744901788886       -1.07722390540950        1.15719208669815
C           -0.16063169135110       -1.10696235748620        1.20308776731655
C           -0.93295766144684       -0.27971626344793        0.39225993369289
N           -2.31775025379270       -0.28460577769619        0.54949913932910
C           -3.12065837916549        0.82788911306641        0.71090428919801
C           -2.77432478029340        2.15985720086943        0.88250869103653
C           -3.79563250182760        3.07743293134980        1.02866151384607
C           -5.14911526848502        2.71663044011959        1.02711787732875
C           -6.20187902982889        3.80479600567613        1.16671388911376
C           -6.05165574108991        4.78982261622327       -0.00280603415487
C           -7.62980382407013        3.25107442348066        1.14272348702241
C           -5.99572794945897        4.54052544882152        2.49964468849901
C           -5.47815069853308        1.37086900734306        0.90165146917653
C           -4.47341523774198        0.43069206720448        0.74883704390397
C           -4.48110774348411       -1.00447272546767        0.60094224954613
C           -5.49728277821404       -1.94041344953408        0.51931915341454
C           -5.18507485913930       -3.28304594660788        0.32846157286058
C           -6.25101449533961       -4.36006810518905        0.20800782937432
C           -7.67097010209232       -3.80247213479423        0.34432172703946
C           -6.04082585804235       -5.40864908169585        1.31110218941523
C           -6.12748228632026       -5.02274460676097       -1.17294715874939
C           -3.83714035159936       -3.64802866619423        0.22162468888763
C           -2.80504111325633       -2.73429461812632        0.29436047495476
C           -3.13105885183075       -1.39982403658257        0.49179847684031
C           -0.29360284297056        0.57989739810994       -0.53860755875356
C           -1.02773341490260        1.45592374678424       -1.46927517011854
O           -0.57422816962749        2.61294868846555       -1.70624507215113
C           -2.22516703547443        0.96275499021649       -2.08074411970600
C           -3.15084675901124        1.84520565462539       -2.69484438961265
N           -4.26109364756464        1.43593674266383       -3.24419562929947
C           -4.51123258858540        0.12765802134856       -3.26487989306998
N           -3.66550498141303       -0.80064104157506       -2.83013343935371
C           -2.55425100419644       -0.40382677951806       -2.26347200066163
C            1.09837749471346        0.62946495945722       -0.53944452161125
H            6.22275732972267       -5.43805868315827       -1.28786742127535
H            7.97086728830194       -5.63776461979970       -1.35726784618183
H            7.20431442679391       -4.27139358688264       -2.17180364182658
H            7.34666358626497       -4.36163957542795        2.12933862462712
H            6.29826890156623       -5.48431162282017        1.26454376820853
H            8.04597401813386       -5.69710334584522        1.20952247428298
H            8.92324095720323       -2.83987946177149        0.84506430739084
H            9.48690229735043       -4.22132109479571       -0.08681494224360
H            8.86858967229626       -2.80575578056368       -0.92802523407778
H            4.68249834046524       -4.50008001863923        0.02941863510792
H            2.82037106530949       -2.94194966066820        0.12519432849252
H            7.49894951240083       -1.26857079944781        0.02522414081483
H            7.38637346295105        1.37959420482263        0.07411860431969
H            7.03703529844946        4.36210938357415        2.27200733118831
H            7.59789073763167        5.78576192454126        1.38954323146627
H            5.87607963040272        5.42835668599701        1.48329617691559
H            8.58511393101885        3.05767746320421       -0.88893339790920
H            8.70024100299399        3.03868785917717        0.88184802443614
H            9.11102398949869        4.49304089808640       -0.01836264199226
H            7.43230695193902        5.82976196855126       -1.17141132960543
H            6.77348137004585        4.43000059972853       -2.02382524306504
H            5.71303690148179        5.46153519517488       -1.06754105787550
H            4.30756773947794        4.35524435234355        0.29468267876644
H            2.58679657242193        2.64508835412864        0.35835072320506
H            1.79835776663546       -1.68266519787785        1.83383311057363
H           -0.66020766158702       -1.73312869295002        1.92725063614386
H           -1.74339919293525        2.47898851826251        0.89189966137854
H           -3.52239748002182        4.11454959137681        1.14498665396603
H           -6.81394133008651        5.56332600491608        0.06048838913371
H           -5.07718893603568        5.27051487461843        0.00359004182063
H           -6.16471557187601        4.26759066964646       -0.95123293603199
H           -7.83375788691578        2.73889268136685        0.20521439736820
H           -7.79907139415862        2.56746597485753        1.97143167214003
H           -8.33603584668690        4.07338849298902        1.23602084649387
H           -6.75713056805374        5.30762653435934        2.62193693441231
H           -6.07106891683933        3.84136752609329        3.33003873041575
H           -5.02126989676238        5.01865242575821        2.54329093254120
H           -6.50226372733108        1.03928894352886        0.91661441774889
H           -6.51770362694170       -1.60507105983231        0.59141845016817
H           -7.81616790199182       -3.33129064743036        1.31376114689232
H           -7.88479555688309       -3.08152236312576       -0.44141045759788
H           -8.38802529417641       -4.61607775366063        0.25612241863049
H           -6.80505309894085       -6.17947097612698        1.24033056403366
H           -6.11041715897305       -4.94222645710724        2.29177442438218
H           -5.06858838323910       -5.88573571732600        1.22765728028485
H           -6.21910036971529       -4.27431707764441       -1.95772405884468
H           -5.16986978532159       -5.52159754938914       -1.29123774988248
H           -6.91533861218398       -5.76143955405831       -1.30341340633295
H           -3.58054707219238       -4.68357311402673        0.06345632612807
H           -1.77989286077100       -3.05257537840508        0.18190989600426
H           -2.93952720941601        2.90737803807948       -2.70811540915322
H           -5.44446485389090       -0.20002820952473       -3.69469472542551
H           -1.86045074996417       -1.18692203787599       -1.97844917884496
H            1.57698062718347        1.27995091433232       -1.25623409051441
