87
 energy: -133.982147834548 gnorm: 0.000065067973 xtb: 6.7.1 (edcfbbe)
C           10.18978669687075       -1.37611582710826        0.53094357260175
C            9.27479905740346       -0.24774742768560        0.01512136232570
C           10.12333815181120        0.92356442605342       -0.51802138525904
C            8.42919403965658       -0.78476469058124       -1.11972722070828
C            9.04810390160394       -1.27047517109903       -2.26417448261082
C            8.32565149066609       -1.73827485331669       -3.34627781418812
C            6.94024346455985       -1.70355393405510       -3.30630733387690
C            6.29881110191538       -1.22887529931877       -2.18432020629179
C            7.02680094066356       -0.78883936808317       -1.06907584238482
N            6.35415593019076       -0.33054793582633        0.04925467481084
C            4.93698818149779       -0.37829234624748        0.06725135596330
C            4.18815027044316        0.79793464639445        0.00312251264976
C            2.81461562828260        0.74693991494426        0.00645655751916
C            2.12286943420538       -0.47741315003377        0.09102723982112
C            0.68020218485177       -0.52445572832639        0.09285383470359
C           -0.02926863575007       -1.67140266774826       -0.33464641065281
C           -1.39198070952988       -1.69959840953909       -0.36296980199149
C           -2.16636825040129       -0.57119296156000        0.01760518365049
C           -3.57269450900576       -0.68085390156375       -0.05422388612294
N           -4.18852833109444       -1.87161672492527       -0.06498769846107
C           -5.49454001964893       -1.62437263482697        0.01349255590005
C           -6.55112516374240       -2.57491629213590        0.12130771908427
C           -6.27942513740546       -3.94387112720398        0.20236832728417
C           -7.30403699469869       -4.85009939180699        0.35634766361738
C           -8.61271078508313       -4.38755795270614        0.44029792782933
C           -8.89203309964324       -3.03869403271947        0.35455968974359
C           -7.87736102863391       -2.08855053813985        0.17996183001843
C           -8.14104191834240       -0.66504339003977        0.03067875543089
C           -9.44532508252354       -0.17101366218738       -0.04739520665044
C           -9.71596856609750        1.16606510408301       -0.25175804163850
C           -8.66827241685752        2.06941317203758       -0.41548495522277
C           -7.37187852866681        1.63103701600702       -0.33324824384597
C           -7.06719742592227        0.27615198426810       -0.08145185505976
C           -5.75209075232375       -0.22644121139489        0.01026667941152
N           -4.50896448609821        0.36737855485492       -0.02640041111238
C           -4.19158351392555        1.72270586708956       -0.10217655934791
C           -3.36250356091876        2.18784250989906       -1.13549442449163
C           -3.02450255521006        3.51528288515937       -1.20927278939444
C           -3.49513526082600        4.42121753130047       -0.24133157915566
C           -3.14408091263303        5.77425648681722       -0.30902324045122
N           -2.85390371282419        6.88975695202251       -0.36425102244066
C           -4.32025042582091        3.95279662432100        0.79820157109507
C           -4.66473422770883        2.62594881880122        0.86290174944885
C           -1.45883734214962        0.55617352249011        0.50508493348733
C           -0.09340410356928        0.57088782161855        0.53694738029626
C            2.89990549213278       -1.64978811759877        0.16718319031462
C            4.27339929285634       -1.60375582626663        0.14677828559854
C            7.02519667280400        0.17195201253967        1.14921396482280
C            6.29948599711026        0.57639799570638        2.27925702011468
C            6.93872335907241        1.09257669083794        3.38404465903595
C            8.32070684138313        1.20373463150463        3.39212499148616
C            9.04319720331519        0.77179731151674        2.29527022144308
C            8.42643285682796        0.24747571592171        1.16687048518086
H           10.82907195930112       -1.01899479882396        1.33281776401295
H            9.58726141482954       -2.19886287295838        0.91171144743469
H           10.82249608499073       -1.75374006439116       -0.26678899336839
H            9.47391213708233        1.71660419821287       -0.88441394919376
H           10.75411920020187        1.33088921754244        0.26645907637016
H           10.76224182855856        0.59850936791436       -1.33366108642853
H           10.12535192832124       -1.28376725216180       -2.31929826299082
H            8.83857139513079       -2.11251872643201       -4.21903109991834
H            6.35928269863478       -2.04008928670515       -4.15162361660406
H            5.22152023311374       -1.18673299304907       -2.16742079381042
H            4.69923002390741        1.74684161457659       -0.07274734191371
H            2.25955855911443        1.66639414990401       -0.09455953625519
H            0.51692522608130       -2.53345692867756       -0.68602697600742
H           -1.92303986541458       -2.57410642688163       -0.70531257881577
H           -5.24807775095681       -4.25727020214058        0.14942664573415
H           -7.09560179201459       -5.90769869909066        0.41880224060306
H           -9.42286966837377       -5.08979070507050        0.57415327448564
H           -9.92194442887550       -2.72880909500888        0.43031727975080
H          -10.28005634324557       -0.84770228301532        0.03814515999692
H          -10.73887614954348        1.50754631868478       -0.30457226389433
H           -8.87391969067951        3.11119316003924       -0.61343802107641
H           -6.56800396410596        2.33142670387803       -0.48861543007199
H           -3.00253124630119        1.48844087652753       -1.87563287409002
H           -2.39931575814917        3.87683823592293       -2.01243425640710
H           -4.67094878421803        4.64632914525771        1.54857286175507
H           -5.28906401323424        2.26148838369670        1.66590711694876
H           -2.00109263450883        1.39527682587267        0.91163495063827
H            0.40186391931918        1.43413646411613        0.95628432147617
H            2.41293107585452       -2.60557608458596        0.27804423780483
H            4.85157676455886       -2.51401661830610        0.21290200164780
H            5.22609895380892        0.47453761215131        2.28695307953698
H            6.35932097396582        1.40111959709558        4.24106835806555
H            8.83182339597279        1.61009972550358        4.25148096513576
H           10.11901280180691        0.84465868629013        2.32590098398734
