87
 energy: -134.060673362135 gnorm: 0.000034435607 xtb: 6.7.1 (edcfbbe)
C           10.18170727266920       -1.34312315419433        0.40475109942278
C            9.24603810551521       -0.18640656277528        0.00531483036095
C           10.07159730643146        1.04489571807286       -0.41323841853548
C            8.40093890690847       -0.62954294885512       -1.17496645105815
C            9.02162191314345       -1.00433314043858       -2.35884733401307
C            8.30424011718540       -1.41085030161197       -3.46938387530246
C            6.92273471181102       -1.44473497280909       -3.40616349670233
C            6.27982336555983       -1.07784421006358       -2.24248605792032
C            7.00335099281024       -0.67211944938427       -1.11662796298008
N            6.32753037897478       -0.30917696573259        0.03665460773594
C            4.90504701208072       -0.37267066374246        0.05349797888480
C            4.15212327372468        0.76384443683305       -0.21681714028465
C            2.77213079932192        0.70068813572948       -0.19405767688430
C            2.11865468974453       -0.49783762888891        0.08766065200216
C            0.65011039932332       -0.56456666058260        0.10510224559353
C           -0.02204889353459       -1.64548600751747       -0.46488881992750
C           -1.39956297111548       -1.70145298917781       -0.45846485880540
C           -2.15014045639528       -0.67638999264658        0.11980796361966
C           -3.59965361601614       -0.79405849549066        0.10756096164443
N           -4.22487608752041       -1.93383587016964        0.25462125269127
C           -5.55342242367336       -1.64502757709254        0.21258788659086
C           -6.64514220403297       -2.54491595218538        0.36781146423113
C           -6.43495566535027       -3.90941358505891        0.59607600008584
C           -7.50105807945817       -4.75420978887268        0.78080486990749
C           -8.79595728822386       -4.23979338359899        0.74266065559563
C           -9.01446685199982       -2.90148689822674        0.51160717602637
C           -7.95143659127680       -2.00716710016301        0.30891934424335
C           -8.14979737689074       -0.59589587794147        0.02473693912369
C           -9.43362227628458       -0.04856562337523       -0.11622576988107
C           -9.63334209165968        1.27383603010579       -0.43557047424549
C           -8.54352405750924        2.11155086841705       -0.65172998309342
C           -7.26972795308460        1.61767448496572       -0.51259478809108
C           -7.04358388186500        0.28143453330936       -0.15101741789842
C           -5.74543360684779       -0.27909214427164        0.01895082753464
N           -4.47729615604390        0.26283299087185       -0.03842377197291
C           -4.09781408414938        1.60737302561015       -0.19128968465991
C           -3.31794954084490        1.98345085199625       -1.28282611965038
C           -2.91004611163958        3.29461011081401       -1.42000748578575
C           -3.28118517165946        4.24113707632307       -0.46276855088163
C           -2.86534332029298        5.58483417506223       -0.60008293538092
N           -2.52833575537847        6.67615340199526       -0.71018147713372
C           -4.06314494834422        3.86416466586478        0.63235292891249
C           -4.46609963023377        2.55206008901899        0.76721968742479
C           -1.48064882263593        0.39002491061973        0.71836941044214
C           -0.10144017545428        0.44619554978942        0.70138328896863
C            2.88355119486599       -1.63258859274130        0.35269637549055
C            4.26362941820426       -1.57163683001492        0.34148541548399
C            6.99505271872242        0.10906676027963        1.17592821282093
C            6.26456662601191        0.45210600382545        2.31802325608959
C            6.89940434652532        0.87210239074288        3.46811441368516
C            8.27986054698380        0.95631954512935        3.50091973243656
C            9.00462695158089        0.61159657606574        2.37441700308578
C            8.39217510473918        0.18506375407623        1.20386742116765
H           10.81028347482257       -1.06129526858041        1.24497732057633
H            9.59401801984486       -2.21364998110612        0.69224377273924
H           10.82657676815054       -1.62331838888533       -0.42363028762819
H            9.40581027985719        1.86110309916593       -0.68929644635422
H           10.70670899772738        1.38107716866137        0.40172825652268
H           10.70477440184591        0.81586818068907       -1.26594057090688
H           10.09908124823756       -0.97996178791910       -2.42356226727090
H            8.82044741652457       -1.69596806751448       -4.37401954100540
H            6.34182816340755       -1.75538119837076       -4.26244927531318
H            5.20163260283523       -1.10309528978704       -2.20064102736221
H            4.65616490982299        1.69218785003815       -0.44296632167782
H            2.19381033269676        1.58472632754195       -0.41831443317461
H            0.54226585519943       -2.43683409712763       -0.93533801653883
H           -1.92043257879494       -2.53519165362280       -0.90370237493626
H           -5.41652380914654       -4.26548243043235        0.62847408494056
H           -7.34219493099262       -5.80747414303440        0.95954477727861
H           -9.63813424011620       -4.89929823222413        0.89550873023836
H          -10.03349398353754       -2.54954653146460        0.49249838421829
H          -10.30014495952022       -0.67533363888593        0.01761374107828
H          -10.63769507547242        1.65860087379879       -0.53443446776677
H           -8.69666977638759        3.14328083246048       -0.93194935397761
H           -6.42944228899865        2.26598768876109       -0.70242928788063
H           -3.03552806973732        1.24377534815746       -2.01640382570032
H           -2.30738773748617        3.59278412446990       -2.26438646415814
H           -4.34418796887908        4.60035001116805        1.37022218325769
H           -5.06827048549460        2.24822068962212        1.61070882570453
H           -2.03402332742383        1.16756972980472        1.22316269500838
H            0.40159026532159        1.27225574775626        1.18210948821995
H            2.39182368430267       -2.56360985440661        0.59207326238814
H            4.85414422846518       -2.45054372350374        0.55531043742571
H            5.18747997612352        0.38511300662890        2.30020497347253
H            6.31309932949126        1.13202764909098        4.33756286697888
H            8.78958230615568        1.28399782431465        4.39475272620955
H           10.08142085578073        0.67887297606504        2.41545713756009
