  87
       -134.00451001
 C         10.1541078571       -1.3996652998        0.4663521290
 C          9.2500719781       -0.2296448659        0.0374187619
 C         10.1075218691        0.9750123564       -0.3902916382
 C          8.4108560596       -0.6721636767       -1.1460441125
 C          9.0377329416       -1.0736723035       -2.3172501364
 C          8.3245862899       -1.4787570189       -3.4305932378
 C          6.9423300986       -1.4800671833       -3.3844098662
 C          6.2934125677       -1.0867371288       -2.2331096906
 C          7.0127315324       -0.6870606864       -1.1027901651
 N          6.3326833135       -0.3012479787        0.0396443622
 C          4.9121209116       -0.3517784441        0.0447677960
 C          4.1700993013        0.7919200645       -0.2243571211
 C          2.7899070250        0.7384879746       -0.2177523707
 C          2.1244064687       -0.4568427876        0.0481999530
 C          0.6565415291       -0.5155509262        0.0501526662
 C         -0.0148410529       -1.6027998924       -0.5087082292
 C         -1.3915558144       -1.6581380890       -0.5058074266
 C         -2.1438392633       -0.6254190808        0.0566172085
 C         -3.5903780874       -0.7577731296        0.0530785104
 N         -4.1978497539       -1.9084937034        0.1785303034
 C         -5.5290555304       -1.6392220044        0.1668852526
 C         -6.6040959960       -2.5594145688        0.3130880159
 C         -6.3673831234       -3.9258766967        0.4950554568
 C         -7.4172354868       -4.7929377881        0.6667044172
 C         -8.7201914467       -4.2986922649        0.6629139277
 C         -8.9639850886       -2.9575771044        0.4795541425
 C         -7.9184412846       -2.0405645907        0.2904397106
 C         -8.1424288235       -0.6247550015        0.0542757830
 C         -9.4360249714       -0.0933409012       -0.0467384856
 C         -9.6611055409        1.2346443873       -0.3213549985
 C         -8.5885208867        2.0953040985       -0.5308433496
 C         -7.3054415987        1.6174488832       -0.4299274678
 C         -7.0530362026        0.2745196093       -0.1147851792
 C         -5.7447650719       -0.2713196161        0.0148049415
 N         -4.4862042242        0.2901037243       -0.0498335493
 C         -4.1300272453        1.6395876842       -0.1884061924
 C         -3.3872857178        2.0442505167       -1.2956003577
 C         -3.0003560143        3.3622858371       -1.4218276545
 C         -3.3540078159        4.2868470794       -0.4375999305
 C         -2.9581765096        5.6378143584       -0.5632107108
 N         -2.6337362649        6.7329605294       -0.6636945712
 C         -4.0983384725        3.8815635081        0.6729051592
 C         -4.4816740547        2.5629909642        0.7967020585
 C         -1.4757848771        0.4513465799        0.6376622099
 C         -0.0967571085        0.5053942747        0.6257891140
 C          2.8786856365       -1.5982775830        0.3149772852
 C          4.2585927676       -1.5475369269        0.3178451864
 C          6.9945079813        0.1203526390        1.1800748414
 C          6.2581466754        0.4851643588        2.3111346549
 C          6.8886657738        0.9136840866        3.4601267689
 C          8.2693142491        0.9829931836        3.5031637276
 C          8.9997881800        0.6124303685        2.3890621101
 C          8.3916889665        0.1772256577        1.2199883236
 H         10.7838565814       -1.1159277749        1.3047808608
 H          9.5422348556       -2.2477149116        0.7679461433
 H         10.7960969299       -1.7138243862       -0.3518566562
 H          9.4634744512        1.7969381255       -0.6972324600
 H         10.7323509551        1.3168502744        0.4299299501
 H         10.7529880465        0.7153694452       -1.2246934010
 H         10.1159010740       -1.0728932151       -2.3688225600
 H          8.8446051330       -1.7858828868       -4.3250522085
 H          6.3655796903       -1.7857465054       -4.2445621359
 H          5.2144675968       -1.0848242356       -2.2049562162
 H          4.6835324801        1.7179517869       -0.4376300198
 H          2.2202403472        1.6279286068       -0.4438162793
 H          0.5515449216       -2.4004274720       -0.9664617903
 H         -1.9126206143       -2.4989094139       -0.9363930701
 H         -5.3429123512       -4.2640822955        0.5016033303
 H         -7.2404660628       -5.8487125832        0.8084104123
 H         -9.5494910644       -4.9762757864        0.8050937332
 H         -9.9888032199       -2.6222245330        0.4864741223
 H        -10.2907035291       -0.7369398040        0.0836379954
 H        -10.6722690767        1.6070148787       -0.3900888590
 H         -8.7622168923        3.1324638020       -0.7758137081
 H         -6.4787652035        2.2850695265       -0.6157733102
 H         -3.1188270821        1.3188949869       -2.0489387910
 H         -2.4282103519        3.6847968810       -2.2787325996
 H         -4.3637979878        4.6023057723        1.4318508347
 H         -5.0524880999        2.2346930340        1.6528641299
 H         -2.0284936842        1.2373665604        1.1303498515
 H          0.4051643217        1.3375547198        1.0977523203
 H          2.3776911080       -2.5268087868        0.5449319713
 H          4.8410149097       -2.4319442134        0.5302060308
 H          5.1806559408        0.4276333352        2.2855105166
 H          6.2989324047        1.1908184310        4.3212398302
 H          8.7749098748        1.3174887456        4.3960274536
 H         10.0767556293        0.6638486593        2.4393221794
