  44
        -74.40316106
 O          3.7336943307        2.4275337056        1.3167093849
 C          3.3885589452        1.4095546583        0.7403518859
 C          4.3727149066        0.4619914196        0.1710687956
 C          5.7293150069        0.7451827781        0.3067955443
 C          6.6852988785       -0.1087839308       -0.2124716654
 C          6.2956146488       -1.2620825119       -0.8776044632
 C          4.9517588915       -1.5550827053       -1.0195862102
 C          3.9790242400       -0.7036770153       -0.5002452002
 C          2.5564399529       -1.0613345159       -0.6749571228
 O          2.2084955137       -2.0776399808       -1.2490975157
 C          1.5727735223       -0.1137331542       -0.1029859404
 C          0.2229307565       -0.4014256753       -0.2467519746
 C         -0.7498527347        0.4501133352        0.2724819157
 N         -2.0977006708        0.1481442497        0.1246397422
 C         -2.6806301268       -1.0902220788        0.3467515380
 C         -2.1091973779       -2.2705346013        0.7980453030
 C         -2.9384217183       -3.3630143457        0.9739146255
 C         -4.3054752758       -3.2875857044        0.7212537187
 C         -4.8844634996       -2.1065810739        0.3004447979
 C         -4.0708312069       -0.9972676946        0.1152279939
 C         -4.3333697342        0.3603444463       -0.2787453389
 C         -5.4861709295        1.0340317290       -0.6581258603
 C         -5.3863873997        2.3630924019       -1.0198874510
 C         -4.1545215883        3.0116856902       -1.0258277195
 C         -2.9936141685        2.3606406595       -0.6512995717
 C         -3.0927356734        1.0350609686       -0.2552057847
 C         -0.3497172559        1.6095881073        0.9441035227
 C          0.9897135473        1.9007672327        1.0814524221
 C          1.9699586499        1.0526566037        0.5656385993
 H          6.0101650841        1.6489171892        0.8274405707
 H          7.7334649945        0.1239700775       -0.0993311546
 H          7.0389006546       -1.9305414759       -1.2852388656
 H          4.6250298681       -2.4467279525       -1.5342349269
 H         -0.0571927052       -1.2886515920       -0.7936498908
 H         -1.0553115583       -2.3401292778        1.0188754976
 H         -2.5143324081       -4.2941022753        1.3186655971
 H         -4.9188634248       -4.1635810465        0.8686154154
 H         -5.9471493262       -2.0403267038        0.1238289541
 H         -6.4366396063        0.5230382439       -0.6752983281
 H         -6.2707450460        2.9070238844       -1.3153392612
 H         -4.1018528143        4.0451580352       -1.3338980507
 H         -2.0421472436        2.8693316072       -0.6856783007
 H         -1.0958262455        2.2600724506        1.3739428199
 H          1.3113822990        2.7890986814        1.6043812678
