44
 energy: -74.434632510051 gnorm: 0.000077043461 xtb: 6.7.1 (edcfbbe)
O            3.73688047838210        2.43002204142194        1.31409378168280
C            3.39033291098730        1.40754946692174        0.73683864764291
C            4.37593115955115        0.46260696198873        0.17068506880849
C            5.73307957506892        0.74394134528582        0.30868020715333
C            6.68958514413377       -0.11115715453504       -0.20950654907497
C            6.29977136479161       -1.26344041538331       -0.87646194561774
C            4.95525791939562       -1.55506107777236       -1.02096621692903
C            3.98184405402006       -0.70325926224025       -0.50238443069384
C            2.56024728832340       -1.05785558040578       -0.67662596213028
O            2.21266427016328       -2.07913685372607       -1.25038383200575
C            1.57508809783370       -0.11269257535391       -0.10712178399395
C            0.22455649337188       -0.39928343265679       -0.25070103890076
C           -0.74976041554251        0.45139282527102        0.27069509141763
N           -2.09812350076302        0.14868612941354        0.12535288716439
C           -2.68178919542584       -1.09079970541746        0.34669036734760
C           -2.11225104454765       -2.27084767115738        0.80227392136530
C           -2.94177395063581       -3.36368767170276        0.97777513666728
C           -4.30828431119716       -3.28895404081886        0.72093466364606
C           -4.88603660484461       -2.10782886637622        0.29714422183600
C           -4.07177728445681       -0.99852427869229        0.11242258412362
C           -4.33473689851311        0.35975594541000       -0.28125034552882
C           -5.48903570189567        1.03247701002146       -0.65916664322497
C           -5.39147522790491        2.36297246234554       -1.01810530393783
C           -4.16005096746356        3.01288022190963       -1.02316161773594
C           -2.99775646560880        2.36236077805399       -0.65022896101114
C           -3.09474277143943        1.03578528044844       -0.25601657004539
C           -0.34810957405824        1.61096726837831        0.94247046494261
C            0.99178354262260        1.90185755271855        1.07939100491826
C            1.97321467557385        1.05403891933013        0.56332806952180
H            6.01486299241689        1.64702553527462        0.83043704084558
H            7.73747585484621        0.12074230055197       -0.09379980816996
H            7.04252580828551       -1.93311229483317       -1.28270947350568
H            4.62909582461696       -2.44689451212157       -1.53613722379959
H           -0.05537039992108       -1.28624267513991       -0.79963821996527
H           -1.05891635245110       -2.34143926133140        1.02621852435040
H           -2.51840091039970       -4.29431111773877        1.32601001856678
H           -4.92243580228827       -4.16502327586126        0.86781046654883
H           -5.94841595745067       -2.04244970180519        0.11759120771377
H           -6.43914669713337        0.52055078250038       -0.67720355028908
H           -6.27734980270067        2.90637342162262       -1.31171647556873
H           -4.10874591457969        4.04746453054224       -1.32893644550376
H           -2.04838421855122        2.87424001414105       -0.68318495907696
H           -1.09216922799850        2.26219252345272        1.37431646634038
H            1.31291751607881        2.79013547963264        1.60344957482827
