51
 energy: -92.672947784527 gnorm: 0.000036450120 xtb: 6.7.1 (edcfbbe)
Cl          -0.24938309110442       -3.86506809039137        1.88368532726884
C           -0.17274426324647       -2.30897284259629        1.15738722916939
N           -1.32631586426728       -1.78548173636520        0.82293566491755
C           -1.33650634412432       -0.49586855345351        0.30038273444674
N           -2.59211718532256        0.02019435307426        0.04308611533904
C           -3.61739108208279       -0.67075546810275       -0.57212012408954
C           -3.64337377258541       -1.98376466599376       -1.02096395617399
C           -4.80684979482454       -2.43509858772315       -1.61835328468880
C           -5.90977756699669       -1.59914636223995       -1.77845254040972
C           -5.88543578713956       -0.28470117975682       -1.33764737592130
C           -4.73419410971457        0.18803044449193       -0.73019722842013
C           -4.35995454067116        1.45237352047734       -0.15467083904491
C           -5.02054727036450        2.65761850594482        0.01554947402178
C           -4.37267456571580        3.68025406972122        0.68957801866389
C           -3.09538451898894        3.49845060295133        1.21612286150869
C           -2.41398093398769        2.30667871454444        1.05193318461944
C           -3.03640473632155        1.29391475561001        0.33312458596083
C           -0.15481519420905        0.16798588033776       -0.00175000710759
Cl          -0.17897043525052        1.63610407268706       -0.93165303913918
C            1.08036225159747       -0.40290135821718        0.30429951726913
N            2.29088662482711        0.18945276890337       -0.03516420391223
C            3.25751981915369       -0.36858221950748       -0.84395344538404
C            3.24977061863133       -1.58948879726524       -1.50411649059884
C            4.35590741293844       -1.91259211648964       -2.26754138831441
C            5.43822458353091       -1.04191088054214       -2.37904241282002
C            5.44075606099147        0.18614795688749       -1.73857386703151
C            4.34216191349695        0.53391910496425       -0.96883135561770
C            3.99316901505079        1.69687568858847       -0.19691107200017
C            4.62950494816881        2.89772905290802        0.07210518152955
C            3.99922920511498        3.81115643155115        0.90114732246730
C            2.75936916136155        3.53180499324265        1.47269415850040
C            2.10374812535359        2.34242398557015        1.21753493602933
C            2.71902740848257        1.43420380818557        0.36607483402924
C            1.05588196293291       -1.70036181721821        0.97717120040469
Cl           2.50334090990859       -2.31491306028867        1.65949482220849
H           -2.78685883914369       -2.62410237189574       -0.88901750771341
H           -4.86019155866528       -3.45337957234332       -1.97207885002991
H           -6.79904642311963       -1.98368682171037       -2.25511897487625
H           -6.74479478901368        0.35634075690882       -1.46293031852370
H           -6.02311380149502        2.79200294029321       -0.36084768677082
H           -4.87084593967326        4.62784994153332        0.82871455052652
H           -2.63124193506472        4.30154317372183        1.76797523507305
H           -1.43814729445372        2.16416208605329        1.48761403582410
H            2.40755327098331       -2.25945144187901       -1.42477068807726
H            4.38081479777060       -2.85641363706173       -2.79077864196525
H            6.28604517772545       -1.33011355956322       -2.98226066004763
H            6.27823088792059        0.85996298035294       -1.83737249295297
H            5.59830263044926        3.11320140852691       -0.35226019015052
H            4.47939039345469        4.75326495396654        1.11925027073276
H            2.30465160335039        4.25750545109539        2.12997510443329
H            1.15216026497467        2.11918381841583        1.67436783927438
