51
 energy: -92.768905604475 gnorm: 0.000056684385 xtb: 6.7.1 (edcfbbe)
Cl          -0.42886050858573       -3.25524167920885        3.51339194226252
C           -0.22477878430422       -2.07315959172273        2.29456949924797
N           -1.32257688807287       -1.56645875954393        1.78558201350660
C           -1.26429514407651       -0.64977255958642        0.82522455756896
N           -2.46833195165284       -0.16909385231284        0.35901697536722
C           -3.58026057742847       -0.95599965447989        0.07042289606417
C           -3.74632857275598       -2.32403612583988        0.19750729638502
C           -4.95162609311491       -2.86494182305670       -0.21274888174849
C           -5.96374219505794       -2.06824944625024       -0.74063522437485
C           -5.79753135823183       -0.70340089772331       -0.87387198329857
C           -4.59675220442761       -0.13911160968793       -0.46541733439638
C           -4.09674557238159        1.21056893112454       -0.45002068070698
C           -4.65619540307780        2.43277490106453       -0.79468612691574
C           -3.91561647716469        3.58080152441074       -0.58892067122972
C           -2.64796275881997        3.51956997419360       -0.01897102358131
C           -2.07189895205194        2.31165828669500        0.33122963820860
C           -2.78901642955566        1.15345024593683        0.07799811801518
C           -0.02940494829018       -0.25793868824172        0.28224051422760
Cl           0.06228196661404        0.69681130069464       -1.15571834581598
C            1.15173893488891       -0.75760002046634        0.84265348471741
N            2.39071411185472       -0.38147441047767        0.34493899041499
C            3.34922053945080       -1.23584674783319       -0.17727711843024
C            3.29057472814900       -2.60547917771410       -0.37571283051538
C            4.38755518839691       -3.21634017573089       -0.95498442087718
C            5.50685713044942       -2.48398824246027       -1.34112383213993
C            5.55404669666230       -1.11380702263773       -1.17324141145726
C            4.46581329210736       -0.47840690065020       -0.59073467635349
C            4.16463118529782        0.89705942671706       -0.29549868081626
C            4.86792571650206        2.08402735285044       -0.44907820486469
C            4.27847092638983        3.26080776728583       -0.02969476856260
C            3.01419487291473        3.26271122395348        0.55317322701020
C            2.29713110876417        2.09246704020146        0.72040550615740
C            2.87329411659961        0.91521696036879        0.27321975607928
C            1.05079417522225       -1.67435344532964        1.90144635414138
Cl           2.45983263819729       -2.26870158086620        2.68730404675322
H           -2.96731213500989       -2.94117296317105        0.61451616160233
H           -5.11099087508314       -3.92873743607729       -0.11953499343384
H           -6.89112742581891       -2.52734517697822       -1.04897860890292
H           -6.58036660756570       -0.08553702792421       -1.28661556197185
H           -5.65363797376326        2.48107180586727       -1.20396014591041
H           -4.33047388985159        4.54186072324676       -0.85321248976472
H           -2.10350198125169        4.43422009851163        0.16203583973145
H           -1.10222172065101        2.28442280641354        0.80261227576305
H            2.41963654605520       -3.17840798254001       -0.09577463130737
H            4.37275857351844       -4.28405585719207       -1.11473722242495
H            6.34431683472116       -2.99795162438375       -1.78855908983132
H            6.41382807136062       -0.54424291637721       -1.49149743715566
H            5.85603973214031        2.08178519595980       -0.88324826297493
H            4.80730030926251        4.19511507576690       -0.14412395910149
H            2.58606861945079        4.19637760335389        0.88613539546432
H            1.32653341309618        2.09807715184250        1.19295713016333
