51
 energy: -92.768914001909 gnorm: 0.000042469262 xtb: 6.7.1 (edcfbbe)
Cl          -0.25947256756897       -3.89818199534619        1.80710661101544
C           -0.16450032432776       -2.33476141147106        1.12053865240037
N           -1.30585728091465       -1.75202915240799        0.84013106442053
C           -1.33245783988709       -0.54117341385459        0.29309696738260
N           -2.57675714866871       -0.00380393409830        0.04650317574067
C           -3.64962159141992       -0.69996081424130       -0.50427552918717
C           -3.73050938882155       -2.02488294323807       -0.89581861607716
C           -4.91574253010634       -2.45449058928969       -1.46533745406897
C           -5.99092434293117       -1.58907030892442       -1.64639030658042
C           -5.90975583560616       -0.26465895138101       -1.26230872497633
C           -4.73047175068996        0.18691456821495       -0.68573134347917
C           -4.31081486079284        1.46438358684198       -0.17211582938406
C           -4.95309767355781        2.68617893732349       -0.02982113368869
C           -4.27538745101361        3.72238936298510        0.58315726632400
C           -2.98802108545017        3.53900738296712        1.07761831577568
C           -2.32999212002225        2.32940764166125        0.94576975542102
C           -2.98483802370567        1.30327656130864        0.28393874215814
C           -0.14017854153394        0.10894623018957       -0.06634202735176
Cl          -0.14811130126653        1.53327505544827       -1.04574703079857
C            1.08527752673632       -0.47905197679051        0.26765309009986
N            2.28320277924014        0.14501419062247       -0.04818449512687
C            3.28773242283104       -0.37807733505580       -0.84731943469732
C            3.32201063846851       -1.57403400409116       -1.54532623156378
C            4.44668963843832       -1.84071293813043       -2.30434350566601
C            5.50261673632305       -0.93655705976979       -2.38051627522527
C            5.45608310987854        0.27067048317587       -1.71101852956026
C            4.33846933624788        0.55946558885410       -0.93979274850807
C            3.94752793733987        1.69790529504838       -0.15182764652938
C            4.56129597155294        2.90465612442904        0.15507972873922
C            3.89989833586774        3.79128988649711        0.98248280804776
C            2.65270035172763        3.48052809918037        1.51730630837954
C            2.02440604297343        2.28312784085803        1.22917855640110
C            2.67151750726262        1.40584476856902        0.37510635327474
C            1.07186121528343       -1.72967080749336        0.90585392221506
Cl           2.53632407738296       -2.47380293913906        1.41362634725907
H           -2.90247266114540       -2.69873429613623       -0.74792456562716
H           -5.00908680772624       -3.48479062136374       -1.77438889675183
H           -6.90025339772470       -1.96218948184608       -2.09337389422380
H           -6.74158000640835        0.40798105915473       -1.40574155841225
H           -5.96495119749363        2.81574970154600       -0.38207546737615
H           -4.75508124356669        4.68239978706756        0.70084805761811
H           -2.49288304965443        4.35486123991413        1.58259323935515
H           -1.34546434493713        2.19435858723349        1.36472936533831
H            2.50023926615752       -2.27280527476421       -1.50614984117252
H            4.50426852241520       -2.76897864744215       -2.85276566722037
H            6.36463699429208       -1.18238023063010       -2.98234054559216
H            6.26618835971182        0.97982311279988       -1.78687296395685
H            5.53679976116040        3.13869321803233       -0.24302860484749
H            4.35838465066285        4.73697704998323        1.22975934686874
H            2.16750941024227        4.18653659213136        2.17460117613507
H            1.06750569859051        2.03870088945899        1.66504249761326
