51
 energy: -92.676048894445 gnorm: 0.000033439060 xtb: 6.7.1 (edcfbbe)
Cl          -0.39084915782326       -4.12261991440563        1.24587058418868
C           -0.22923547919454       -2.51011506936493        0.69296343856742
N           -1.36050934525004       -1.83343945099082        0.52446783854737
C           -1.36578092471969       -0.57048709797581        0.19036723323759
N           -2.56474617008804        0.06456993617048        0.04020835496069
C           -3.79181947428770       -0.55853363858362       -0.17741035963472
C           -4.09747015805390       -1.90681915814406       -0.28163463794549
C           -5.41507814919154       -2.25276648817063       -0.52909489200778
C           -6.40595853732182       -1.28805305577189       -0.67650320995593
C           -6.10405352233805        0.05950179502442       -0.58215104524961
C           -4.79172083176029        0.42655107843227       -0.33274505782847
C           -4.14386694993649        1.70422460541786       -0.17900980964591
C           -4.61368156060561        3.00718021250268       -0.20328061690133
C           -3.71706431751750        4.03801032039997        0.01712011319727
C           -2.37594968581640        3.77215359048920        0.27124722396851
C           -1.88918301632261        2.47704356131853        0.30410141316382
C           -2.77558896721993        1.44039908559960        0.05512122133717
C           -0.11692164125602        0.13009762020956       -0.11723410085782
Cl          -0.07498105077593        0.76591947080013       -1.79872614858221
C            1.11488013525930       -0.58309283886321        0.22539236791430
N            2.31510650236775        0.10000435291406        0.09521071005452
C            3.40149149030486       -0.25942617965009       -0.67822655049179
C            3.56077646745722       -1.34608207459525       -1.52561152267635
C            4.75284123434809       -1.45057817891520       -2.21912670048410
C            5.75567397228848       -0.49457764249727       -2.08794160600899
C            5.58399171284077        0.61248986733894       -1.27565431842124
C            4.39842680707884        0.73825021457077       -0.56884542824070
C            3.87200401269396        1.75090857786648        0.30959026542279
C            4.36306420059637        2.95305921218515        0.79426479201347
C            3.56692610170535        3.69633065252380        1.64857073225148
C            2.30790400575237        3.24565996218569        2.03574233358013
C            1.80183142728623        2.04399142849787        1.57432006500521
C            2.58260299966425        1.31561324208799        0.69011466024268
C            1.04470572246249       -1.91147583843520        0.57488557782774
Cl           2.45413376065927       -2.79837287109236        1.03274165482679
H           -3.33361970882735       -2.65653084152134       -0.16793498936904
H           -5.67739791188921       -3.29669000492632       -0.61101120050081
H           -7.42242959883197       -1.59617932850905       -0.87032241184936
H           -6.87028312377152        0.81007540432650       -0.70182156612344
H           -5.65789980783665        3.20927898462515       -0.38591459373373
H           -4.06195416607768        5.06089450198148        0.00252554600460
H           -1.69741669323351        4.59146634132018        0.45446659210735
H           -0.84939362533555        2.28772681531167        0.51406220939383
H            2.77976861248998       -2.07854346923412       -1.65389011962232
H            4.90574543061852       -2.29021820373522       -2.88036865253614
H            6.67440245390275       -0.61348469328479       -2.64249024526444
H            6.35106917829409        1.36795195919187       -1.19848974906427
H            5.34546666333008        3.29937175801076        0.51161520516149
H            3.93096404346497        4.63721949857785        2.03326448279285
H            1.71946308745366        3.84023007134596        2.71844559376462
H            0.84173638757510        1.67449625031653        1.90099960652329
