  54
        -83.66097441
 N          5.0821765407       -2.8459541062        0.4653912848
 C          5.1614255031       -1.7152833634        0.2719139662
 C          5.3697072557       -0.3407149218        0.0401041575
 C          4.3797276938        0.5734173703       -0.1016142714
 C          2.9499533832        0.3941693530       -0.1048209823
 C          2.3163865635       -0.8523540723       -0.1664688656
 C          0.9430602112       -0.9501055201       -0.1638057118
 C          0.1441470149        0.1949477962       -0.0983557968
 C         -1.2961606566        0.1396015246       -0.0790451808
 N         -2.0846013010        1.1907639760       -0.0005310731
 C         -3.3614445013        0.7363892589       -0.0013962078
 C         -4.4771972145        1.6722111813        0.0224303692
 C         -5.6798494430        1.3957548485       -0.6248105289
 C         -6.7133606101        2.3128059966       -0.5925082510
 C         -6.5607582851        3.5159253864        0.0774030986
 C         -5.3610350039        3.8053655560        0.7067280149
 C         -4.3241610160        2.8928691816        0.6769599228
 C         -3.3594751668       -0.6546604753       -0.0738979040
 C         -4.4139557386       -1.6511031499       -0.0337549311
 C         -5.5434181302       -1.4594789407        0.7633298022
 C         -6.5322976646       -2.4218905580        0.8143855898
 C         -6.4118256201       -3.5899654352        0.0777669125
 C         -5.2924444981       -3.7917222780       -0.7118747092
 C         -4.2983848969       -2.8329482340       -0.7665890863
 N         -2.0377699793       -1.0042658671       -0.1355163504
 C          0.7705349526        1.4453695195       -0.0488140159
 C          2.1404275085        1.5404154053       -0.0572460193
 C          6.7915134226        0.0459700012        0.0012630034
 C          7.7199543193       -0.6095571844        0.8091682421
 C          9.0513399690       -0.2395476405        0.7867889925
 C          9.4777525429        0.7803320378       -0.0477464784
 C          8.5647596969        1.4264238011       -0.8649754765
 C          7.2316299997        1.0633531624       -0.8437040243
 H          4.6973399865        1.6049046490       -0.1992936441
 H          2.9078362668       -1.7508258486       -0.2255395896
 H          0.4947167773       -1.9319565554       -0.2133554548
 H         -5.7988351401        0.4666998954       -1.1627174216
 H         -7.6426106112        2.0894770387       -1.0964585362
 H         -7.3727426626        4.2277257749        0.1028299023
 H         -5.2351380310        4.7463082336        1.2222899931
 H         -3.3822277047        3.1062517924        1.1579655335
 H         -5.6309826539       -0.5549486212        1.3458870764
 H         -7.4006643067       -2.2628443905        1.4362427491
 H         -7.1871235783       -4.3399622303        0.1193788366
 H         -5.1936929028       -4.6988085389       -1.2899625943
 H         -3.4380919659       -2.9903811429       -1.4029252675
 H         -1.6927767274       -1.9491126049       -0.1655450873
 H          0.1469345864        2.3239901772       -0.0067400568
 H          2.6084767098        2.5138822939       -0.0179292602
 H          7.3896891459       -1.4034505602        1.4634143529
 H          9.7584783465       -0.7506847780        1.4228513599
 H         10.5185185962        1.0664238771       -0.0664295417
 H          8.8934420302        2.2139519036       -1.5269238510
 H          6.5315790911        1.5552946385       -1.5034325084
  54
        -83.66085718
 N          5.1285241988       -2.8912114437       -0.0708260703
 C          5.1885393570       -1.7438570408       -0.0183162310
 C          5.3772154381       -0.3481295454        0.0312193708
 C          4.3791873138        0.5672178925        0.0798652535
 C          2.9496646698        0.3874498512        0.0706494901
 C          2.3124602056       -0.8583850356        0.0294994822
 C          0.9390386982       -0.9524377726        0.0169942555
 C          0.1421148574        0.1957334476        0.0407272372
 C         -1.2983885760        0.1422675983        0.0216521567
 N         -2.0869082160        1.1935260011       -0.0558037581
 C         -3.3638077050        0.7393105421       -0.0462233618
 C         -4.4807441379        1.6738992638       -0.0679804202
 C         -5.6768645245        1.3999765581        0.5925332300
 C         -6.7137128111        2.3130917214        0.5604816847
 C         -6.5707393977        3.5104025034       -0.1219948381
 C         -5.3771501703        3.7980544481       -0.7636836101
 C         -4.3369689332        2.8891421157       -0.7345358901
 C         -3.3618884320       -0.6515606378        0.0336731083
 C         -4.4176337384       -1.6471828764        0.0137491811
 C         -4.2929044759       -2.8242743563        0.7528800167
 C         -5.2912747412       -3.7797090726        0.7236341524
 C         -6.4247445197       -3.5793294044       -0.0461827391
 C         -6.5537360699       -2.4169907600       -0.7903684620
 C         -5.5601479283       -1.4583013067       -0.7653375751
 N         -2.0398844968       -1.0012277438        0.0860641155
 C          0.7712780474        1.4449898645        0.0809002307
 C          2.1415333201        1.5357906984        0.0991275631
 C          6.7966052467        0.0514458484        0.0324700209
 C          7.2148392025        1.2162059235       -0.6087271840
 C          8.5471738291        1.5828531014       -0.5935009776
 C          9.4816780010        0.7937642802        0.0568501881
 C          9.0771325735       -0.3714352298        0.6872076597
 C          7.7465592479       -0.7444586133        0.6723527523
 H          4.6918748670        1.6028667902        0.1441312277
 H          2.9007703478       -1.7602237827        0.0069720272
 H          0.4887376467       -1.9340551279       -0.0201931925
 H         -5.7876373845        0.4758760231        1.1406107755
 H         -7.6376872650        2.0916689546        1.0748754353
 H         -7.3852026659        4.2193846917       -0.1469050090
 H         -5.2587699924        4.7348495436       -1.2886389555
 H         -3.4001711112        3.1011437981       -1.2261957476
 H         -3.4219725028       -2.9804739579        1.3749248213
 H         -5.1852382531       -4.6829095261        1.3064995684
 H         -7.2041123702       -4.3260887695       -0.0665482909
 H         -7.4328649616       -2.2589926593       -1.3972570012
 H         -5.6551002994       -0.5583300726       -1.3537375884
 H         -1.6946188634       -1.9456520139        0.1255801693
 H          0.1500401057        2.3261705865        0.0999783925
 H          2.6106169881        2.5089999489        0.1341711044
 H          6.4987554970        1.8242399533       -1.1424986411
 H          8.8583708205        2.4858682145       -1.0978864690
 H         10.5220537481        1.0818330312        0.0653680437
 H          9.8008941653       -0.9944939042        1.1911685505
 H          7.4340747243       -1.6527702874        1.1672306598
  54
        -83.66068957
 N          5.0990660973       -2.7199475247        0.9965660739
 C          5.1703106138       -1.6336078244        0.6200484723
 C          5.3746084240       -0.3151258745        0.1663805646
 C          4.3826970355        0.5580183840       -0.1318488493
 C          2.9522637043        0.3861347271       -0.0883447368
 C          2.3140807083       -0.8375529525        0.1454487151
 C          0.9405584234       -0.9295113726        0.1620086141
 C          0.1445133820        0.2000390305       -0.0476609635
 C         -1.2959558025        0.1468912012       -0.0389569722
 N         -2.0874593625        1.1961282910       -0.1204899243
 C         -3.3622150335        0.7397131027       -0.0773152979
 C         -4.4848377056        1.6683143411       -0.0763050074
 C         -5.6413354115        1.4081663361        0.6565674614
 C         -6.6854675793        2.3129378089        0.6521823100
 C         -6.5883621827        3.4887686162       -0.0749259140
 C         -5.4347415557        3.7617510261       -0.7910718822
 C         -4.3871539055        2.8606827474       -0.7897496484
 C         -3.3573893130       -0.6505511992        0.0168919268
 C         -4.4124044243       -1.6458017600        0.0032091253
 C         -4.2648814617       -2.8461667632        0.6998039302
 C         -5.2593835992       -3.8054754692        0.6624992727
 C         -6.4129978598       -3.5849751925       -0.0709528774
 C         -6.5669998199       -2.3973068690       -0.7692655602
 C         -5.5766826480       -1.4358878904       -0.7381822853
 N         -2.0340390134       -0.9965575494        0.0559122735
 C          0.7748317119        1.4280780694       -0.2780267971
 C          2.1452638343        1.5146468037       -0.3057111006
 C          6.7980446633        0.0508339176        0.0492543565
 C          7.7340086854       -0.9115441650       -0.3286247664
 C          9.0686904232       -0.5783699563       -0.4594745365
 C          9.4917326436        0.7155094697       -0.2066386748
 C          8.5718620616        1.6743811958        0.1843338364
 C          7.2354841354        1.3472590006        0.3137421401
 H          4.6985597363        1.5407568019       -0.4630376488
 H          2.9007629290       -1.7262612269        0.3058811014
 H          0.4900117158       -1.8940661655        0.3472588817
 H         -5.7134363247        0.5003905039        1.2380077491
 H         -7.5780501795        2.1033079455        1.2242056837
 H         -7.4070992124        4.1931111302       -0.0765144373
 H         -5.3522186147        4.6827850499       -1.3514890250
 H         -3.4794940809        3.0645476523       -1.3381786280
 H         -3.3782401993       -3.0202402235        1.2941947262
 H         -5.1336333978       -4.7280868384        1.2098022276
 H         -7.1889817669       -4.3351450743       -0.0995382171
 H         -7.4625940520       -2.2228084232       -1.3471485873
 H         -5.6902484162       -0.5179552657       -1.2946017595
 H         -1.6832024007       -1.9392083742        0.0855357126
 H          0.1541069601        2.2959963134       -0.4339764437
 H          2.6158104877        2.4706872949       -0.4876041991
 H          7.4073450920       -1.9215611926       -0.5292273019
 H          9.7808721990       -1.3331648370       -0.7575569603
 H         10.5350404711        0.9737818925       -0.3066974649
 H          8.8974490120        2.6825073879        0.3942777969
 H          6.5319008265        2.0973729198        0.6444746370
