62
 energy: -101.971258207031 gnorm: 0.000048585027 xtb: 6.7.1 (edcfbbe)
O           -2.37883013563781       -1.25244901524740        1.62635625439854
C           -1.44772242434673       -1.44620953370493        0.87658056143645
C           -1.04088830097510       -2.82513547476555        0.49874705069727
C           -0.34833692157991       -3.15706214992027       -0.66641455353596
N           -0.02982855814080       -4.40437779734267       -0.96097107436000
C           -0.41823603687620       -5.34020039059296       -0.11303763803391
N           -1.09948568330892       -5.15120538776187        1.00355778958099
C           -1.40413699918782       -3.90487956557159        1.30940009787038
C           -0.62272342163627       -0.33931071166974        0.32112708268155
C            0.76275889865471       -0.45142079699680        0.31794286740641
C            1.56431645538988        0.61826272663605       -0.06693732352603
N            2.95520086736326        0.49914760334282       -0.03830483696998
C            3.70592074416843        0.02585663635004        1.02360986610753
C            3.29662059572283       -0.38224441233700        2.28450162920466
C            4.26989634169165       -0.78420579773846        3.17986206635971
C            5.62029821085491       -0.77411065975460        2.83958854379221
C            6.03526510865783       -0.34367663227455        1.59517526325897
C            5.07557253920772        0.06480089785611        0.67867480543049
C            5.14734760617460        0.58202598311042       -0.65991812355284
C            6.19965758869454        0.82991686289063       -1.53111470078010
C            5.91456386719202        1.32089943049831       -2.78961642305290
C            4.59975625337300        1.54842996252131       -3.18834791282149
C            3.53605958492966        1.30916862604426       -2.33878195849195
C            3.81856364418370        0.84124017258657       -1.06404450982431
C            0.96265436248195        1.80817273146153       -0.47716324586535
C           -0.41170047094357        1.91711513934558       -0.50660129562413
C           -1.22186529365082        0.85853989582230       -0.10014199341040
N           -2.60933340067921        0.99436179457045       -0.13940622523159
C           -3.33354702564469        1.99814138677220        0.47840946360980
C           -2.88707905869398        3.06696927624302        1.23996817749564
C           -3.83627592000147        3.92242133104905        1.76722778126045
C           -5.19711435967297        3.71942762567110        1.55240936058162
C           -5.64693901418327        2.64324414004373        0.81333942317656
C           -4.71225038979244        1.77092337057285        0.27222601928232
C           -4.81763809536455        0.57169570518169       -0.51232301125452
C           -5.89005830537445       -0.13636547058543       -1.03728672482967
C           -5.63404558361332       -1.26817830903158       -1.78575000019659
C           -4.32811381474658       -1.68413179082464       -2.03133114086204
C           -3.24528570180592       -0.99309711156046       -1.52170371090266
C           -3.49794218277773        0.12383682882590       -0.74071803607785
H           -0.04763201132637       -2.40946201366283       -1.39092470598099
H           -0.15674186331428       -6.36077015479360       -0.36032742584878
H           -1.95027511624145       -3.74020723553238        2.22931308807557
H            1.22933341306854       -1.37006038942450        0.64215687419344
H            2.25511388481719       -0.37369500157998        2.56944356453326
H            3.97560188598845       -1.10894315840603        4.16681161084819
H            6.34976090966769       -1.09824205098694        3.56652118774671
H            7.08296003749121       -0.31803794654239        1.33689344273173
H            7.21722569037134        0.63665845920731       -1.22744153575007
H            6.71816322895429        1.52349552899159       -3.48157329805056
H            4.40576068596855        1.91662952848794       -4.18483918588253
H            2.52010533830043        1.47100347273033       -2.66651907929550
H            1.58059581033390        2.64563226694147       -0.76267888847618
H           -0.87651477098063        2.83144587145674       -0.84315305939930
H           -1.83528358357989        3.22240317403536        1.42873245101150
H           -3.51486149667023        4.76434440000161        2.36250461839499
H           -5.90744370550019        4.41089005858055        1.98050754691970
H           -6.70246351971144        2.47630734816985        0.66114767475354
H           -6.90208535575424        0.19598430787923       -0.86268859260572
H           -6.45422786759195       -1.83717260221146       -2.19719892845822
H           -4.15558658556295       -2.56258379682149       -2.63574488670643
H           -2.23657957881419       -1.31195918623466       -1.73972813718149
