  69
       -112.02752759
 N        -10.5183575780       -2.8043741256        0.5549183948
 C         -9.4822755409       -2.3179211531        0.4489885316
 C         -8.2158962485       -1.7200179361        0.3190613197
 C         -7.6523892185       -1.5284625391       -0.9489649971
 C         -6.4107057954       -0.9527579864       -1.0706587628
 C         -5.6921790682       -0.5260169638        0.0591739472
 C         -4.3888134160        0.0941418940       -0.0777340025
 C         -4.1203860742        1.3464760774        0.5613686747
 C         -5.1130870388        2.0575219694        1.2410608867
 C         -4.8225210695        3.2261172919        1.9408203045
 C         -3.5278014961        3.6995745509        1.9757992549
 C         -2.5353927361        3.0538009688        1.2445652238
 C         -2.8157552261        1.9185390901        0.4764475190
 C         -1.8321776611        1.3233385522       -0.3689987709
 C         -0.5324667939        1.9671567257       -0.5339963201
 C         -0.4427625693        3.3050047072       -0.9380576389
 C          0.7879178018        3.9134014398       -1.1046996686
 C          1.9554143675        3.2117576856       -0.8713758914
 C          1.8854440649        1.8760941386       -0.4678779839
 C          3.1063403228        1.1389045879       -0.2358380351
 N          4.3138744450        1.6160626289       -0.3281665016
 C          5.1361384221        0.5642371576       -0.0457160484
 C          6.5565649609        0.4918624770       -0.0000869108
 C          7.3532851371        1.6110991839       -0.2591407164
 C          8.7218006068        1.5130866054       -0.2106841464
 C          9.3096000665        0.2882921557        0.0989212951
 C          8.5355334589       -0.8193023136        0.3560117107
 C          7.1338605686       -0.7621211750        0.3170433675
 C          6.2971256845       -1.9201535835        0.5839801509
 C          6.8255946165       -3.1808640007        0.8975209408
 C          6.0147639694       -4.2644368426        1.1449042230
 C          4.6274126522       -4.1444980599        1.0920006322
 C          4.0667135040       -2.9293379462        0.7890807245
 C          4.8823044664       -1.8193888489        0.5351370571
 C          4.3512053353       -0.5477270186        0.2145589485
 O          3.0551330428       -0.1791982840        0.0941281044
 C          0.6487456888        1.2625357505       -0.3019240006
 C         -2.1181810146        0.1071765939       -1.0587790992
 C         -1.2074240537       -0.4673516855       -1.9523031780
 C         -1.4427641186       -1.7105344735       -2.5315539069
 C         -2.5923975567       -2.4056100546       -2.2202176225
 C         -3.5484878113       -1.8240023830       -1.3913044484
 C         -3.3700975164       -0.5466947492       -0.8531716188
 C         -6.2754142194       -0.7172604658        1.3232298119
 C         -7.5073898813       -1.3113715615        1.4561154519
 H         -8.2050698032       -1.8322700275       -1.8260347381
 H         -5.9929291243       -0.7815145694       -2.0518987964
 H         -6.1320033801        1.7032822978        1.2191682389
 H         -5.6123248363        3.7445789604        2.4627305067
 H         -3.2800201490        4.5789232455        2.5506992738
 H         -1.5269020673        3.4365310050        1.2756819471
 H         -1.3505153967        3.8504879321       -1.1515019835
 H          0.8344014323        4.9433513481       -1.4259017890
 H          2.9245985897        3.6663096205       -0.9954435919
 H          6.8589315047        2.5406636459       -0.4949871736
 H          9.3412838009        2.3746029493       -0.4100045538
 H         10.3860696216        0.2067730032        0.1377565295
 H          9.0334663944       -1.7462586770        0.5916438913
 H          7.8933347561       -3.3204101111        0.9493309473
 H          6.4587907048       -5.2198086914        1.3828350803
 H          4.0020476121       -5.0024440622        1.2880137464
 H          2.9950902969       -2.8043384722        0.7399484420
 H          0.6036294371        0.2395857920        0.0413824749
 H         -0.3027357056        0.0644524511       -2.2032412954
 H         -0.7134583719       -2.1302401217       -3.2077381081
 H         -2.7665272668       -3.3910419137       -2.6247697461
 H         -4.4415911065       -2.3815272700       -1.1550622454
 H         -5.7205762016       -0.4309733444        2.2046274136
 H         -7.9366752263       -1.4721069549        2.4343257456
