  71
       -107.16104440
 C          2.7638157879        4.7451177120       -1.2806426035
 C          4.0631491499        4.2913262647       -1.4250123735
 C          4.4993985872        3.1952455670       -0.7044798457
 C          3.6381210828        2.5519634489        0.1788049942
 C          2.3294980103        3.0170207034        0.3409539966
 C          1.9063751963        4.1048522896       -0.3997626964
 C          1.4511637623        2.3460429733        1.3571967912
 C          1.8084470263        0.8944777109        1.5208470947
 C          3.1496419219        0.5261156326        1.3855228586
 C          3.5611703777       -0.7634864536        1.7057728081
 C          2.6427969456       -1.6779048359        2.1843758063
 C          1.3060757147       -1.3376674941        2.2620288128
 C          0.8744240458       -0.0679356067        1.8869382006
 C         -0.5797857379        0.2031933128        1.8176294604
 C         -1.3632985134        0.2893508351        2.9572654176
 C         -2.7277487948        0.4874519150        2.8586986229
 C         -3.3288231930        0.6045208496        1.6097267109
 C         -2.5513012769        0.5340116342        0.4490158621
 C         -1.1848551095        0.3219600984        0.5559055704
 C         -0.3095421203        0.2533855790       -0.6395284781
 C         -0.0150399998        1.4202152024       -1.3396884164
 C          0.9234817295        1.4140922953       -2.3533205478
 C          1.5996197183        0.2495051176       -2.6615145906
 C          1.2765060936       -0.9325283953       -2.0032289551
 C          0.2845183861       -0.9448173172       -1.0187405647
 C         -0.1575613755       -2.2735843685       -0.4707639413
 C          0.9792151315       -3.2537807554       -0.4275188603
 C          1.0335860635       -4.2825277510        0.4944297667
 C          2.0619360547       -5.2111991724        0.4666806774
 C          3.0518760705       -5.1104977579       -0.4951159297
 C          3.0231891566       -4.0788456292       -1.4147295078
 C          1.9916080115       -3.1459370327       -1.3854967378
 N          1.9457620724       -2.1083469065       -2.3000038173
 C         -3.2072576053        0.7082372317       -0.8941333626
 C         -4.6735263885        0.3775762622       -0.8620713938
 C         -5.3585906266        0.0294010011       -2.0126595741
 C         -6.7253994724       -0.1982099815       -1.9901509834
 C         -7.4205950049       -0.0791697766       -0.7992283099
 C         -6.7499832147        0.2442791932        0.3650326931
 C         -5.3765044624        0.4698546036        0.3429825877
 N         -4.6967036710        0.7827518226        1.5050768390
 N          4.0595166245        1.4572777534        0.9116639367
 H          2.4209107355        5.5991376412       -1.8450858196
 H          4.7397513197        4.7886159336       -2.1042533030
 H          5.5115421892        2.8324811865       -0.8201612253
 H          0.8957218166        4.4667853472       -0.2755229361
 H          1.6088376300        2.8380122345        2.3287533668
 H          0.3980811739        2.4664608484        1.1075746637
 H          4.6009129475       -1.0368877023        1.5925910304
 H          2.9661763395       -2.6688253253        2.4652356983
 H          0.5836856794       -2.0616755160        2.6068740559
 H         -0.8990788959        0.2002232208        3.9284720195
 H         -3.3362430784        0.5474139404        3.7501032375
 H         -0.5177758146        2.3383867442       -1.0784838635
 H          1.1537544467        2.3260879438       -2.8829528919
 H          2.3708407374        0.2461805687       -3.4190801419
 H         -0.9331035825       -2.6721308282       -1.1419524647
 H         -0.6141601102       -2.1609473267        0.5116365104
 H          0.2527010411       -4.3675507973        1.2364251682
 H          2.0855776532       -6.0139320429        1.1881306545
 H          3.8532315950       -5.8338892400       -0.5277108855
 H          3.7993429585       -3.9910422632       -2.1625612075
 H          2.7248154812       -2.0326737014       -2.9380734954
 H         -3.0960213016        1.7552484830       -1.2078064715
 H         -2.6942390808        0.1005177992       -1.6435083145
 H         -4.8138189467       -0.0526938593       -2.9425203208
 H         -7.2447527065       -0.4611359793       -2.8991288459
 H         -8.4870682465       -0.2465996768       -0.7733803231
 H         -7.2857604016        0.3245807866        1.3007035488
 H         -5.2263298246        0.7594381700        2.3641854688
 H          4.9937446339        1.1206246750        0.7286175272
