  61
  -97.4769978494000       0.432108834197092      !
 C         -7.1980454577        3.6855485018       -0.9788661873
 C         -6.1688117194        3.1803460401       -1.7565492859
 C         -5.5551144976        1.9900921205       -1.4182418245
 C         -5.9611849689        1.2882431483       -0.2832528415
 N         -5.3411200742        0.0830325265        0.0653314969
 C         -6.1010527408       -0.9579368184        0.6117812048
 C         -7.3942419881       -1.2055587207        0.1518291794
 C         -8.1435282580       -2.2282147747        0.7002494029
 C         -7.6172094768       -3.0230066876        1.7055786466
 C         -6.3313203058       -2.7841520905        2.1626685443
 C         -5.5769811166       -1.7589984721        1.6262660133
 C         -3.9679377456       -0.0779504564       -0.1213730088
 C         -3.0906910257        0.9912186044        0.0717162215
 C         -1.7351606954        0.8259750697       -0.1079352652
 C         -1.2025275669       -0.4078375295       -0.4875276034
 C          0.2349516347       -0.5772735445       -0.6776234051
 C          0.7403680105       -1.4094257805       -1.6682741468
 N          2.0327124671       -1.5840423533       -1.8775797765
 C          2.9569245512       -0.9820558919       -1.1618218000
 N          4.2437658028       -1.1803360701       -1.3767754594
 C          5.1476817665       -0.5597315269       -0.6345696377
 C          4.7393666137        0.3300460854        0.4095120076
 N          3.4681269888        0.5498009235        0.6407100274
 C          2.5356031165       -0.0630583000       -0.0900134735
 C          1.1771750795        0.1023759290        0.1143190814
 C          5.9297770984        0.8607262165        1.0479568634
 C          6.1856475772        1.7299862899        2.0794347909
 C          7.5294721447        1.9945795132        2.4056233380
 C          8.5872368226        1.4226053670        1.7394204280
 C          8.3571208549        0.5227556468        0.6729937853
 C          9.3110188638       -0.1577741934       -0.1223727262
 C          8.8962059237       -1.0027091385       -1.1248031148
 C          7.5413026083       -1.2412056937       -1.4195367136
 C          6.5875266425       -0.5955468935       -0.6658623809
 C          7.0216498172        0.2748950458        0.3667853198
 C         -2.0853150408       -1.4718849830       -0.6828183217
 C         -3.4417150835       -1.3139428684       -0.5030202066
 C         -6.9955979965        1.8029158890        0.4981066939
 C         -7.6082565365        2.9899185776        0.1468067741
 H         -7.6771826803        4.6142935248       -1.2482947319
 H         -5.8465373800        3.7122839233       -2.6393889544
 H         -4.7604629056        1.5922263397       -2.0320485907
 H         -7.8028024266       -0.5928499143       -0.6382803636
 H         -9.1428982559       -2.4105183652        0.3338316451
 H         -8.2048958869       -3.8224298006        2.1301308896
 H         -5.9147084810       -3.3948299494        2.9499599821
 H         -4.5788529936       -1.5671975882        1.9915423306
 H         -3.4835482216        1.9519607728        0.3702362284
 H         -1.0764061033        1.6691180495        0.0362277923
 H          0.0908079778       -1.9419409063       -2.3476514554
 H          0.8587626456        0.7429273053        0.9210671155
 H          5.3890458799        2.2037616123        2.6320272898
 H          7.7295526473        2.6789137469        3.2177135525
 H          9.6014937763        1.6583730713        2.0278079822
 H         10.3645445785       -0.0085811003        0.0634466172
 H          9.6408064103       -1.5122019613       -1.7201267720
 H          7.2676719773       -1.9145790484       -2.2169078987
 H         -1.6994148286       -2.4401313485       -0.9643020545
 H         -4.1089081765       -2.1488254660       -0.6587041019
 H         -7.3102278341        1.2672796713        1.3816964963
 H         -8.4064101514        3.3784576894        0.7619132565
  61
  -97.4766558868000       0.300910966380309      !
 C         -6.7734701987        3.9554234612        0.7400581908
 C         -7.4212503251        3.1263843782       -0.1612784687
 C         -6.9490895668        1.8509460697       -0.4032400666
 C         -5.8178651541        1.3828515460        0.2645075345
 N         -5.3394612632        0.0883453170        0.0268796860
 C         -6.2457506208       -0.9620329219       -0.1587316651
 C         -5.9786769515       -1.9740961860       -1.0806456571
 C         -6.8758591123       -3.0096934278       -1.2560258490
 C         -8.0528902593       -3.0502752874       -0.5263898915
 C         -8.3258280986       -2.0441447144        0.3860954902
 C         -7.4312409796       -1.0087151252        0.5747657995
 C         -3.9667247102       -0.1512936669       -0.0185820150
 C         -3.0936815517        0.8048945258       -0.5419986830
 C         -1.7372626424        0.5695592514       -0.5789109959
 C         -1.1990687242       -0.6296138026       -0.1067738243
 C          0.2383885149       -0.8766030934       -0.1550806449
 C          0.7477117883       -2.1472910211       -0.3913782922
 N          2.0409971203       -2.4104687834       -0.4465134203
 C          2.9624970537       -1.4871358319       -0.2835236688
 N          4.2505726895       -1.7716983982       -0.3259492506
 C          5.1516248789       -0.8165215197       -0.1577779740
 C          4.7390141963        0.5349949505        0.0714245773
 N          3.4665197872        0.8456463227        0.1162052988
 C          2.5370104976       -0.0969679246       -0.0447219709
 C          1.1778483486        0.1552963209        0.0163229949
 C          5.9262972118        1.3567391373        0.2145332120
 C          6.1769735036        2.6870487971        0.4444289521
 C          7.5191650034        3.1049899630        0.5206505918
 C          8.5802098320        2.2426283334        0.3766800662
 C          8.3552895316        0.8664712866        0.1403048275
 C          9.3129501996       -0.1631233469       -0.0296345669
 C          8.9027769451       -1.4570546722       -0.2504917645
 C          7.5491781965       -1.8345440348       -0.3213218437
 C          6.5918445089       -0.8584529297       -0.1613685444
 C          7.0212940865        0.4743161477        0.0671649215
 C         -2.0778609333       -1.5842367531        0.4097276388
 C         -3.4341601190       -1.3506569669        0.4597505901
 C         -5.1719989566        2.2196697968        1.1743242696
 C         -5.6475870700        3.4959886039        1.4039310415
 H         -7.1439661907        4.9521644220        0.9246569362
 H         -8.2962725226        3.4781245926       -0.6872809968
 H         -7.4496468209        1.2087942641       -1.1127186804
 H         -5.0669916376       -1.9383405092       -1.6588126171
 H         -6.6574978851       -3.7861335651       -1.9743340731
 H         -8.7525528214       -3.8597204352       -0.6681740927
 H         -9.2388663447       -2.0695886142        0.9624756953
 H         -7.6414254092       -0.2302110887        1.2934364043
 H         -3.4920503464        1.7319306504       -0.9271130266
 H         -1.0843704776        1.3138131458       -1.0094526489
 H          0.1007227534       -2.9931298457       -0.5726681215
 H          0.8582155977        1.1625035077        0.2301006479
 H          5.3772493791        3.4015923068        0.5650700562
 H          7.7154032622        4.1520684291        0.7011669337
 H          9.5930499522        2.6128194452        0.4441882386
 H         10.3656206739        0.0746371813        0.0159339076
 H          9.6500263902       -2.2277984379       -0.3764335840
 H          7.2795730454       -2.8646145588       -0.4962177025
 H         -1.6868879552       -2.5084500473        0.8080110319
 H         -4.0953415138       -2.0935434506        0.8807475508
 H         -4.3006978314        1.8585159901        1.7007101212
 H         -5.1411740910        4.1323643355        2.1146512367
  61
  -97.4765428264000       0.266980199422599      !
 C         -7.3514411554        3.7175860173        0.4440778094
 C         -6.3177638760        3.3717021624        1.2991095599
 C         -5.6512781515        2.1721157965        1.1426036012
 C         -6.0078611946        1.2988614278        0.1148041972
 N         -5.3356035673        0.0833233810       -0.0458305426
 C         -6.0310486080       -1.0545162023       -0.4713559957
 C         -5.4295204203       -1.9621624772       -1.3432811712
 C         -6.1157099748       -3.0858075324       -1.7603463285
 C         -7.4098384543       -3.3197243372       -1.3246416020
 C         -8.0130574897       -2.4196426508       -0.4613727039
 C         -7.3322463375       -1.2969821095       -0.0320478729
 C         -3.9642969500        0.0003083039        0.2041825019
 C         -3.4215575970       -1.1412053843        0.7973989273
 C         -2.0664423524       -1.2339763734        1.0251719267
 C         -1.2033428574       -0.1978057192        0.6645649502
 C          0.2365187557       -0.3170573337        0.8769246961
 C          0.7540496441       -0.9430045088        2.0031843592
 N          2.0493694113       -1.0867537836        2.2199144206
 C          2.9629150186       -0.6551812249        1.3785836602
 N          4.2520032107       -0.8373914229        1.5960180674
 C          5.1443238788       -0.4048008387        0.7187944837
 C          4.7217492755        0.2714399690       -0.4697120925
 N          3.4489249180        0.4794072187       -0.7033397993
 C          2.5275535327        0.0441350216        0.1569878629
 C          1.1666187293        0.1890375342       -0.0472397609
 C          5.9008369183        0.6165463625       -1.2419996730
 C          6.1405727822        1.2453243847       -2.4388207811
 C          7.4768730975        1.3795592687       -2.8612407395
 C          8.5426952389        0.9104984600       -2.1305010812
 C          8.3292051257        0.2586692259       -0.8935865490
 C          9.2930304022       -0.2882111770       -0.0116064784
 C          8.8937387273       -0.8938989000        1.1565101165
 C          7.5456360897       -1.0093544844        1.5423067140
 C          6.5825902247       -0.4888928204        0.7081914331
 C          7.0008761004        0.1367955232       -0.4942209242
 C         -1.7530712074        0.9458639015        0.0826773726
 C         -3.1085948778        1.0478227995       -0.1414435392
 C         -7.0452796813        1.6548892227       -0.7471310946
 C         -7.7110432018        2.8529718578       -0.5769051095
 H         -7.8726191488        4.6538616206        0.5722701588
 H         -6.0335284180        4.0368239831        2.1010938147
 H         -4.8535883260        1.8992505875        1.8177803109
 H         -4.4244288356       -1.7760872993       -1.6922932837
 H         -5.6390136428       -3.7785845244       -2.4379830338
 H         -7.9442535853       -4.1969246193       -1.6556976224
 H         -9.0195187543       -2.5968860064       -0.1122003294
 H         -7.8006762932       -0.6018685270        0.6491554939
 H         -4.0748628886       -1.9552046479        1.0748439051
 H         -1.6643425765       -2.1313191100        1.4710183908
 H          0.1128516735       -1.3263800526        2.7835631911
 H          0.8353858672        0.6658179777       -0.9558212892
 H          5.3369294322        1.6295899944       -3.0478037455
 H          7.6643232533        1.8742944017       -3.8034470738
 H          9.5504223707        1.0363930745       -2.4991594230
 H         10.3416622087       -0.2270282382       -0.2627950073
 H          9.6455350679       -1.3054429894        1.8151442936
 H          7.2842442069       -1.4961344600        2.4689942846
 H         -1.1075181309        1.7676751576       -0.1889642148
 H         -3.5172018442        1.9373326268       -0.5979098916
 H         -7.3207046382        0.9875972159       -1.5504954947
 H         -8.5115613048        3.1166889328       -1.2522411679
