  61
        -97.83129581
 C         -6.7172507280        4.1172021089        0.0122011191
 C         -7.3766301739        3.1508454927       -0.7298947668
 C         -6.9224289123        1.8463168564       -0.7413108197
 C         -5.7978701593        1.4881186201        0.0014742423
 N         -5.3376939705        0.1655047803       -0.0022887498
 C         -6.2586457363       -0.8885130241       -0.0014336284
 C         -6.0058316726       -2.0512758907       -0.7291652887
 C         -6.9174693502       -3.0890634368       -0.7208320658
 C         -8.0949349405       -2.9836777593        0.0015850447
 C         -8.3536961378       -1.8283400889        0.7210715810
 C         -7.4446552485       -0.7883309851        0.7258422103
 C         -3.9684583361       -0.0973488102       -0.0012787065
 C         -3.0820906317        0.7390238867       -0.6834064284
 C         -1.7291103845        0.4821434566       -0.6747830291
 C         -1.2077928538       -0.6219368362        0.0033150134
 C          0.2260538177       -0.8934219845        0.0029837813
 C          0.7174807747       -2.1927874833       -0.0036064453
 N          2.0069422894       -2.4794191795       -0.0081495376
 C          2.9413188767       -1.5546426973       -0.0087633444
 N          4.2252713121       -1.8599999525        0.0029719792
 C          5.1396493817       -0.9026855784        0.0017759307
 C          4.7460600911        0.4736344455       -0.0126745413
 N          3.4780536836        0.8048678304       -0.0266675647
 C          2.5353978837       -0.1384085644       -0.0206334388
 C          1.1799129804        0.1394386470       -0.0085054251
 C          5.9447667801        1.2912433884       -0.0142362210
 C          6.2141013753        2.6376471043       -0.0226240267
 C          7.5620303051        3.0438869362       -0.0182220103
 C          8.6108595933        2.1550741273       -0.0048005513
 C          8.3666346037        0.7620482518        0.0053816434
 C          9.3097413603       -0.2945088010        0.0225659986
 C          8.8814364964       -1.6013078848        0.0330241535
 C          7.5226695092       -1.9666263162        0.0267464686
 C          6.5791382719       -0.9644948355        0.0091967524
 C          7.0272630261        0.3816171737       -0.0005275329
 C         -2.0998872499       -1.4579127749        0.6783456085
 C         -3.4527720848       -1.2004427048        0.6829369029
 C         -5.1402950135        2.4636573615        0.7505359975
 C         -5.5979112574        3.7669146535        0.7496278732
 H         -7.0737115418        5.1359032351        0.0166981779
 H         -8.2466417739        3.4160648294       -1.3119619479
 H         -7.4319711108        1.0957825205       -1.3272642037
 H         -5.0937495140       -2.1309523840       -1.3023000075
 H         -6.7100495030       -3.9832550446       -1.2899594614
 H         -8.8058965280       -3.7956888205        0.0034732841
 H         -9.2669863700       -1.7388127302        1.2906206794
 H         -7.6438701183        0.1078428502        1.2949813497
 H         -3.4674151940        1.5887436424       -1.2273807377
 H         -1.0658449781        1.1294142161       -1.2285589023
 H          0.0586755277       -3.0483305138       -0.0340350533
 H          0.8744581074        1.1728978896        0.0229844445
 H          5.4244911208        3.3732481500       -0.0322222660
 H          7.7729544923        4.1035710736       -0.0252529599
 H          9.6287989852        2.5173327828       -0.0013389625
 H         10.3656473365       -0.0670110384        0.0279529767
 H          9.6177880777       -2.3924298573        0.0472157306
 H          7.2386245930       -3.0075640600        0.0361210315
 H         -1.7219177957       -2.3024229831        1.2347639258
 H         -4.1243069588       -1.8479413754        1.2270563659
 H         -4.2741362713        2.1892930020        1.3346361767
 H         -5.0825949717        4.5119032058        1.3378391920
  61
        -97.83119079
 C         -7.1456185272        3.5534436907       -1.6329356948
 C         -6.1235996077        2.9044764848       -2.3064796881
 C         -5.5266645345        1.7844591329       -1.7614932099
 C         -5.9425185953        1.3001074264       -0.5212698334
 N         -5.3394261901        0.1671003354        0.0364923381
 C         -6.1138842294       -0.7501981362        0.7565620412
 C         -7.4104346832       -1.0573699672        0.3444779617
 C         -8.1739902129       -1.9564442930        1.0632744350
 C         -7.6588552223       -2.5680862850        2.1946110550
 C         -6.3697272900       -2.2699480069        2.6054107560
 C         -5.6010839564       -1.3663599623        1.8980132014
 C         -3.9686442663       -0.0433334027       -0.1154232971
 C         -3.0764682637        1.0309012299       -0.1123130954
 C         -1.7233962280        0.8177660264       -0.2565767786
 C         -1.2081477912       -0.4709764727       -0.4106668242
 C          0.2268059021       -0.6912177467       -0.5642673164
 C          0.7204632303       -1.6923759646       -1.3908848906
 N          2.0102232423       -1.9191071614       -1.5628327444
 C          2.9428147790       -1.2128464650       -0.9625544661
 N          4.2267397530       -1.4637887980       -1.1358897431
 C          5.1392992584       -0.7342468762       -0.5129232243
 C          4.7435440297        0.3317309068        0.3563299670
 N          3.4755210687        0.6064647842        0.5418938751
 C          2.5344655186       -0.1130283165       -0.0712114705
 C          1.1784993920        0.1047000567        0.0973032998
 C          5.9413045779        0.9504621247        0.8937792267
 C          6.2093811290        1.9848376341        1.7558881296
 C          7.5567966436        2.2843523171        2.0334406397
 C          8.6064091961        1.5889962649        1.4814983370
 C          8.3636542289        0.5179788417        0.5904650229
 C          9.3078828615       -0.3056208021       -0.0696607822
 C          8.8812217962       -1.3087222664       -0.9078727533
 C          7.5230958427       -1.5768375578       -1.1591088574
 C          6.5784985652       -0.7949317339       -0.5338503950
 C          7.0248268675        0.2383498338        0.3296388191
 C         -2.1057921550       -1.5404835427       -0.4168632119
 C         -3.4598363220       -1.3344959757       -0.2711660405
 C         -6.9695832381        1.9591165381        0.1542050184
 C         -7.5655257213        3.0736218461       -0.4029915162
 H         -7.6116765048        4.4264235273       -2.0635488657
 H         -5.7939122230        3.2673695347       -3.2686851778
 H         -4.7376933492        1.2733539623       -2.2933043153
 H         -7.8103736067       -0.5884835144       -0.5425401640
 H         -9.1758308632       -2.1868516133        0.7324198698
 H         -8.2576960092       -3.2716117823        2.7524092478
 H         -5.9617093347       -2.7374454739        3.4893158044
 H         -4.6003517513       -1.1267907353        2.2260616064
 H         -3.4557904704        2.0346334705        0.0106207799
 H         -1.0528654139        1.6639265737       -0.2621838915
 H          0.0634729830       -2.3276290643       -1.9669677293
 H          0.8691327233        0.8821843113        0.7772631754
 H          5.4195241461        2.5598478736        2.2140201643
 H          7.7664866413        3.0987027146        2.7121891957
 H          9.6238838822        1.8580122492        1.7261340321
 H         10.3634042580       -0.1404905266        0.0894316833
 H          9.6185801062       -1.9257226346       -1.4018731037
 H          7.2400172406       -2.3767808650       -1.8254896902
 H         -1.7335311511       -2.5484914928       -0.5217193396
 H         -4.1386891382       -2.1744482759       -0.2783797647
 H         -7.2916787775        1.5926108332        1.1178216761
 H         -8.3581294920        3.5758265967        0.1317396969
  61
        -97.83101095
 C         -7.2952660792        3.5377543740        1.5247048179
 C         -6.2758103213        2.9284856648        2.2379405792
 C         -5.6270177062        1.8220618299        1.7254962157
 C         -5.9872240252        1.3110651418        0.4784075795
 N         -5.3328738305        0.1906101565       -0.0428150493
 C         -6.0421050280       -0.7500379524       -0.7988354703
 C         -5.4464716658       -1.3588501918       -1.9035888308
 C         -6.1463069096       -2.2887368703       -2.6471741029
 C         -7.4482800305       -2.6209033726       -2.3097491350
 C         -8.0456383367       -2.0166185978       -1.2155570119
 C         -7.3513184296       -1.0913152010       -0.4606240235
 C         -3.9656256605        0.0102194415        0.1762089123
 C         -3.4471030288       -1.2676212071        0.3948016621
 C         -2.0959773394       -1.4502128353        0.5895938352
 C         -1.2129083926       -0.3693349305        0.5667915387
 C          0.2226798838       -0.5739755499        0.7392084515
 C          0.7189100861       -1.5232994280        1.6227517022
 N          2.0095477611       -1.7499622733        1.7911780042
 C          2.9382007276       -1.0988020208        1.1261577850
 N          4.2219874083       -1.3621831176        1.2834753011
 C          5.1297931419       -0.6987051722        0.5844919179
 C          4.7299250374        0.3157793370       -0.3425169745
 N          3.4629715575        0.6083312727       -0.5073088796
 C          2.5262458576       -0.0520100896        0.1746332367
 C          1.1698985483        0.1731288964        0.0181608333
 C          5.9220057229        0.8586922379       -0.9669874867
 C          6.1836566935        1.8184528567       -1.9133564288
 C          7.5260717354        2.0508910314       -2.2683923542
 C          8.5769405479        1.3617235950       -1.7109891687
 C          8.3407634116        0.3672941732       -0.7333658138
 C          9.2869047953       -0.4402897953       -0.0562020231
 C          8.8663806327       -1.3663918302        0.8691531997
 C          7.5128299042       -1.5695513717        1.1950003328
 C          6.5665693536       -0.8017512636        0.5553442158
 C          7.0067451893        0.1535198064       -0.3964681977
 C         -1.7384972999        0.9072259380        0.3596122383
 C         -3.0899211809        1.0974570449        0.1711027137
 C         -7.0101897178        1.9321679217       -0.2383196232
 C         -7.6584209788        3.0329569355        0.2867324991
 H         -7.8026946411        4.3994902564        1.9304132208
 H         -5.9890082698        3.3116113961        3.2060907918
 H         -4.8405504531        1.3415402283        2.2886980618
 H         -4.4351114362       -1.0934367457       -2.1744184983
 H         -5.6739921807       -2.7500411232       -3.5018600341
 H         -7.9932937628       -3.3451960824       -2.8954436440
 H         -9.0582287219       -2.2736476658       -0.9418827508
 H         -7.8153665187       -0.6290263571        0.3982100343
 H         -4.1160421569       -2.1154085616        0.4072662229
 H         -1.7127058507       -2.4480198874        0.7418151835
 H          0.0639328389       -2.1149250469        2.2457177519
 H          0.8553846015        0.9105638138       -0.7028287046
 H          5.3923542548        2.3849266793       -2.3795224963
 H          7.7307705619        2.8062312737       -3.0135183153
 H          9.5901716969        1.5757938609       -2.0188998038
 H         10.3388304268       -0.3244488529       -0.2718430133
 H          9.6049152755       -1.9730540419        1.3740222885
 H          7.2344839883       -2.3112303463        1.9274388383
 H         -1.0772422414        1.7608197332        0.3550244615
 H         -3.4797178148        2.0911686716        0.0063462150
 H         -7.2882036893        1.5472369067       -1.2084063378
 H         -8.4478603457        3.5048692777       -0.2794290926
  61
        -97.83089725
 C         -7.3493930828        3.5273468680        1.4856456096
 C         -6.3474774617        2.9214831785        2.2261707859
 C         -5.6781337173        1.8200895213        1.7295744189
 C         -6.0002723391        1.3104373862        0.4715699671
 N         -5.3260046060        0.1945315886       -0.0332559847
 C         -6.0073390756       -0.7438853585       -0.8174998175
 C         -5.3767652990       -1.3387589393       -1.9104841365
 C         -6.0487838243       -2.2668448788       -2.6813716116
 C         -7.3572061313       -2.6109815635       -2.3832689789
 C         -7.9893251385       -2.0202600315       -1.3012130400
 C         -7.3230915364       -1.0967916034       -0.5191556223
 C         -3.9633149101        0.0210353348        0.2171459615
 C         -3.4438704014       -1.2560240958        0.4383353352
 C         -2.0947475737       -1.4357516460        0.6485307760
 C         -1.2145322993       -0.3522633060        0.6396332853
 C          0.2216133133       -0.5569104577        0.8073133769
 C          0.7238971652       -1.5179634706        1.6745615160
 N          2.0154155354       -1.7528665704        1.8241955359
 C          2.9391163198       -1.0998098493        1.1540479207
 N          4.2229377491       -1.3767170080        1.2857591932
 C          5.1250586888       -0.7105091574        0.5818139821
 C          4.7191526798        0.3240468100       -0.3201037533
 N          3.4523467171        0.6296387084       -0.4596648890
 C          2.5209375533       -0.0359968449        0.2244237624
 C          1.1640133642        0.1971634778        0.0870311756
 C          5.9051787553        0.8669718972       -0.9557551891
 C          6.1591310649        1.8413681009       -1.8891124241
 C          7.4971595509        2.0668836878       -2.2644607566
 C          8.5507257683        1.3564653282       -1.7397760743
 C          8.3222252022        0.3463761364       -0.7766220376
 C          9.2721163595       -0.4840760810       -0.1332916077
 C          8.8590384137       -1.4231811425        0.7823007787
 C          7.5098662490       -1.6176543515        1.1309883643
 C          6.5599688361       -0.8276463876        0.5241340119
 C          6.9926143122        0.1403885825       -0.4183923979
 C         -1.7425268556        0.9244457367        0.4395059084
 C         -3.0922903564        1.1118344471        0.2358123735
 C         -7.0055417396        1.9282720681       -0.2726683998
 C         -7.6742472349        3.0242652161        0.2363524631
 H         -7.8729647076        4.3851632792        1.8789529512
 H         -6.0905415819        3.3036200718        3.2030876669
 H         -4.9053146360        1.3422407273        2.3135498061
 H         -4.3602082210       -1.0639932226       -2.1507753030
 H         -5.5492354519       -2.7176680332       -3.5261539493
 H         -7.8801618160       -3.3343869996       -2.9898417406
 H         -9.0073366364       -2.2866657876       -1.0583253533
 H         -7.8144228156       -0.6447379396        0.3298513740
 H         -4.1101968284       -2.1059655983        0.4364122099
 H         -1.7102344999       -2.4333281766        0.7993558162
 H          0.0736975718       -2.1145171447        2.2979809851
 H          0.8446570371        0.9455407518       -0.6204512265
 H          5.3649645387        2.4236257373       -2.3309222142
 H          7.6958782188        2.8334015218       -2.9999098122
 H          9.5604093609        1.5660289206       -2.0623075943
 H         10.3209528507       -0.3756734793       -0.3673669945
 H          9.6003209480       -2.0470056018        1.2613064639
 H          7.2375297524       -2.3702492146        1.8545329093
 H         -1.0842437098        1.7802846713        0.4499995935
 H         -3.4833139200        2.1055129763        0.0737071820
 H         -7.2534639706        1.5447457561       -1.2514620454
 H         -8.4493171315        3.4938501605       -0.3512017672
