  113
       -178.06222128
 N         11.8794550893       -4.8638934441       -0.2652935455
 C         10.8423351995       -4.3688709923       -0.2077758321
 C          9.5756729915       -3.7704751943       -0.1353331982
 C          8.4944906426       -4.4621708298        0.4404132200
 C          7.2633600466       -3.8715111191        0.5142214043
 C          7.0504293305       -2.5566236429        0.0368976485
 C          5.7315241863       -2.0334833015        0.1402111121
 N          4.6736489334       -2.8351721865        0.2510739114
 C          3.5926275876       -2.0620116848        0.1912067464
 C          2.2351043459       -2.4688779680        0.2048954804
 C          1.8875217195       -3.8245489358        0.2544169464
 C          0.5709775208       -4.2116290961        0.2264811661
 C         -0.4391915439       -3.2458325581        0.1593547215
 C         -1.8472754860       -3.6353343760        0.1221854760
 C         -2.8217868923       -2.8884987471        0.7900574262
 C         -4.1492860010       -3.2490375927        0.7497873672
 C         -4.5596151718       -4.3685524403        0.0200649594
 N         -5.9052937023       -4.7210599985       -0.0413419938
 C         -6.2809098079       -6.0684682288       -0.1208255619
 C         -5.5898036813       -7.0393747991        0.6036672618
 C         -5.9659517387       -8.3658696573        0.5201778985
 C         -7.0351465615       -8.7435407546       -0.2759858977
 C         -7.7274992467       -7.7816549383       -0.9936811078
 C         -7.3552149133       -6.4534797434       -0.9226251294
 C         -6.8937174666       -3.7291635593       -0.0349077313
 C         -8.0933458041       -3.9348520830        0.6465923812
 C         -9.0686237587       -2.9568907845        0.6467003155
 C         -8.8634939044       -1.7610939610       -0.0224514015
 C         -7.6730755810       -1.5513382424       -0.6995807620
 C         -6.6947513851       -2.5261443162       -0.7125771652
 C         -3.5904684497       -5.1223955068       -0.6480495131
 C         -2.2626519091       -4.7645726964       -0.5884645302
 C         -0.0877310686       -1.8959169366        0.1225138687
 C          1.2369406890       -1.4677488963        0.1426899500
 C          1.6155944816       -0.0565865803        0.1282740172
 C          0.6635785431        0.9436528664        0.1104629371
 C          0.9725283639        2.3127982182        0.1700394661
 C         -0.0706506909        3.3091194495        0.1235781644
 C          0.0713649470        4.5585766794        0.7540702281
 C         -0.9273261277        5.4989040253        0.7203386748
 C         -2.1253618652        5.2464736111        0.0384162869
 N         -3.1423380057        6.1938526407        0.0041734924
 C         -2.8360813604        7.5601044375       -0.0042499593
 C         -1.7405562731        8.0355350259       -0.7256637742
 C         -1.4435075310        9.3842205546       -0.7265531989
 C         -2.2318735011       10.2769059936       -0.0180479016
 C         -3.3239070190        9.8097798839        0.6958729948
 C         -3.6266326800        8.4624529096        0.7081758376
 C         -4.4813679899        5.7871639626       -0.0232812025
 C         -4.9000879212        4.6803973525        0.7165259417
 C         -6.2210861600        4.2798613961        0.6790557183
 C         -7.1438385549        4.9757737845       -0.0856835425
 C         -6.7341976498        6.0795640735       -0.8165931257
 C         -5.4142760323        6.4848194408       -0.7915699787
 C         -2.2743019601        4.0124560729       -0.6085283021
 C         -1.2773368677        3.0715895451       -0.5604159604
 C          2.3336452150        2.6656744778        0.2996330372
 C          3.3065759332        1.7145383728        0.2803666904
 C          3.0038753809        0.3311960183        0.1530177074
 C          3.9591888356       -0.6821921287        0.0905931664
 N          5.3404173893       -0.6884387432        0.0535227223
 C          6.2024910289        0.4058034823       -0.0194714982
 C          7.2089321032        0.5685901743        0.9404308392
 C          8.0693885482        1.6380856303        0.8655838157
 C          7.9473683305        2.5670013152       -0.1766704205
 C          8.8236577409        3.6649747026       -0.2555726912
 N          9.5324474746        4.5671988802       -0.3208088564
 C          6.9453435925        2.3994623988       -1.1425862981
 C          6.0823370105        1.3322412290       -1.0631424364
 C          8.1347526745       -1.8879510859       -0.5712722542
 C          9.3668735383       -2.4830199180       -0.6546767485
 H          8.6514829442       -5.4603038530        0.8225117874
 H          6.4242696517       -4.3893710134        0.9506501447
 H          2.6870274418       -4.5465787201        0.3095865957
 H          0.3102205457       -5.2577684840        0.2816826253
 H         -2.5263198423       -2.0348973057        1.3820079938
 H         -4.8833202134       -2.6730504629        1.2940805539
 H         -4.7646259872       -6.7442599677        1.2351197072
 H         -5.4255918814       -9.1086570887        1.0878074053
 H         -7.3272039029       -9.7806760164       -0.3364517631
 H         -8.5584144822       -8.0682267760       -1.6208112715
 H         -7.8882429280       -5.7059750064       -1.4916933053
 H         -8.2503591617       -4.8621046540        1.1777386197
 H         -9.9921028319       -3.1268519658        1.1799136212
 H         -9.6271340525       -0.9984592297       -0.0175833107
 H         -7.5079679178       -0.6251249132       -1.2299480272
 H         -5.7732327050       -2.3670791055       -1.2531730609
 H         -3.8937354512       -5.9816718952       -1.2279058986
 H         -1.5347552598       -5.3453774249       -1.1347704959
 H         -0.8897271692       -1.1792199070        0.0470849192
 H         -0.3808344758        0.6781947556        0.0957543751
 H          0.9658539620        4.7698913415        1.3193751367
 H         -0.8045138203        6.4368282355        1.2420267450
 H         -1.1344647231        7.3418763871       -1.2896040225
 H         -0.5953931276        9.7415739901       -1.2910870160
 H         -1.9970881048       11.3301609303       -0.0226100099
 H         -3.9399099660       10.4986000730        1.2543326876
 H         -4.4706316898        8.0971052566        1.2747131670
 H         -4.1843727169        4.1471046593        1.3247470731
 H         -6.5338782303        3.4235867034        1.2580229196
 H         -8.1757539921        4.6608954230       -0.1106604111
 H         -7.4463345260        6.6245783495       -1.4180241596
 H         -5.0934514215        7.3375300034       -1.3716161142
 H         -3.1776746344        3.8152359180       -1.1673539746
 H         -1.4074714646        2.1482540215       -1.1041229164
 H          2.6126727077        3.7053796888        0.3785643682
 H          4.3360677708        2.0146760065        0.3859138270
 H          7.2970922993       -0.1513755622        1.7403154715
 H          8.8396898150        1.7731939324        1.6100411971
 H          6.8630471904        3.1099448279       -1.9517816120
 H          5.3132722766        1.1917296234       -1.8086958057
 H          7.9928482889       -0.9180631398       -1.0203396387
 H         10.1883448541       -1.9671069632       -1.1305357754
