75
 energy: -118.046493088389 gnorm: 0.000024823476 xtb: 6.7.1 (edcfbbe)
N           -7.35768203101406        2.78336347808113        2.09385897190569
C           -6.26673694031206        2.73182805407410        1.68588513456184
C           -4.97866511880183        2.67015631037343        1.20665765362852
C           -3.98719224409253        1.86422876951100        1.86163674206164
C           -2.72254739632090        1.79487465204196        1.37886955016992
C           -2.33501956459292        2.54000114210553        0.22375388302648
N           -1.05207528771160        2.44056500033035       -0.27471452120620
C           -0.42082702074532        3.55382523770498       -0.82480797638974
C            0.43789391621738        3.40942008405083       -1.92142118707617
C            1.04734527005122        4.51684435258533       -2.47235697161140
C            0.81162054937683        5.78137768064798       -1.94849537349308
C           -0.04398824183015        5.93083563661947       -0.86524844638149
C           -0.65941378158052        4.83111933640674       -0.30414396577402
C           -0.39189468719460        1.22032170461086       -0.21782369412825
C           -1.10172188395014        0.02693338743353       -0.43222583620988
C           -0.45621889101099       -1.19174424357518       -0.32604908492691
N           -1.15096607336677       -2.38281918786603       -0.56254497823376
C           -0.71441357998216       -3.42432313250609       -1.36198639333526
C            0.42405813983695       -3.52069092098067       -2.15077611146325
C            0.60808089811330       -4.67925533703668       -2.88257591303807
C           -0.31922611757885       -5.71796529477955       -2.84577920990674
C           -1.46907663209226       -5.61618247819069       -2.08587489766335
C           -1.67553053921354       -4.46143046650372       -1.34364509831427
C           -2.74337210828705       -4.01493466745714       -0.49104403230322
C           -3.94034872894101       -4.58906925308784       -0.08523922683841
C           -4.75954784642450       -3.87715365952936        0.77019506049765
C           -4.38873151905880       -2.61595430389308        1.23082678217204
C           -3.19996469916231       -2.02613467141538        0.84291912534102
C           -2.38418387092348       -2.72494363945012       -0.03612136895773
C            0.90367571331185       -1.24251021297811        0.00675195592555
C            1.61181503248207       -0.05286338424510        0.21837172530074
N            2.96974366737692       -0.10797443443264        0.54977709078386
C            3.97788441593467        0.62959559436561       -0.04408567437503
C            3.91362324278999        1.52787714552600       -1.09987849236704
C            5.09209967328484        2.11262718218829       -1.52451249620507
C            6.31168154966540        1.80878359329742       -0.92373899105900
C            6.38566544608974        0.89729818572262        0.11238533291822
C            5.21466926747208        0.29718473583567        0.55545490749127
C            4.92844804015134       -0.68307375723987        1.56757020822568
C            5.71638608084498       -1.36355779396862        2.48587767137106
C            5.10522661859946       -2.24400214298716        3.35844288088124
C            3.72580709867914       -2.43645419201169        3.33247902281915
C            2.92083419815228       -1.76947930207534        2.42760058952098
C            3.53205109354865       -0.90476688526269        1.53003886540946
C            0.97406686447770        1.16925536976665        0.10745067927813
C           -3.31203992704556        3.35945071731759       -0.41889711485039
C           -4.58504548165734        3.41569563154934        0.04376752888585
H           -4.27252121755950        1.33065987390101        2.75671481608196
H           -1.96728104323362        1.22164002726613        1.89765153901964
H            0.59195759619079        2.42806199376092       -2.34510134028340
H            1.70177533761748        4.39884755841276       -3.32284183955710
H            1.28986794002133        6.64535616006996       -2.38328654792935
H           -0.22514361719557        6.91114455304574       -0.45092750658379
H           -1.30804560231295        4.93874198938087        0.55245427933235
H           -2.13840420759494        0.07312629461449       -0.72680610593885
H            1.14034238015101       -2.71540648311008       -2.20720456377818
H            1.48825684373406       -4.77804407025958       -3.50073357208236
H           -0.13898032988342       -6.60867610000082       -3.42927219875243
H           -2.19703808285589       -6.41318844533561       -2.07175108231611
H           -4.22111459256021       -5.57239524584852       -0.43106809748248
H           -5.69808430140497       -4.30235581934712        1.09378212453153
H           -5.04447352617745       -2.08616828056733        1.90626805669778
H           -2.92405374516132       -1.05349489721922        1.21863866447749
H            1.40336436981947       -2.19248952081017        0.09761913977858
H            2.97764162821717        1.76008953399072       -1.58245081150187
H            5.06696995035226        2.81827914993784       -2.34164755180061
H            7.21108874486983        2.28817507460745       -1.28100673454930
H            7.33314612488129        0.65071662504615        0.56730399266436
H            6.78343041426304       -1.20267028716957        2.51803848788574
H            5.70036966765207       -2.78464682051849        4.07943723552695
H            3.27356306507440       -3.11774423561124        4.03816803788062
H            1.85082441867189       -1.91147554898567        2.43337193531780
H            1.50913139056917        2.08328280010848        0.31172437422945
H           -3.02885516677494        3.89878916228156       -1.31105648369429
H           -5.33258014713923        4.01444335736018       -0.45586288176180
