  75
       -118.09681147
 N         -7.4768892222        2.8240034246        2.0222215776
 C         -6.4002899486        2.7487521930        1.6305461502
 C         -5.0789756075        2.6558151559        1.1503197823
 C         -4.1606222001        1.8101499902        1.7783696634
 C         -2.8717741602        1.7209178395        1.3068797752
 C         -2.4643958939        2.4639666659        0.1921837030
 N         -1.1698309071        2.3533610969       -0.2871389739
 C         -0.5232441665        3.4428481309       -0.8951350651
 C          0.2794319483        3.2366725422       -2.0153037215
 C          0.9452624013        4.2983249094       -2.5970527370
 C          0.8108557814        5.5759570862       -2.0790211796
 C          0.0051274986        5.7862535244       -0.9720803297
 C         -0.6560030472        4.7285980207       -0.3767475257
 C         -0.4687530737        1.1457003679       -0.1676554730
 C         -1.1104123191       -0.0652479948       -0.4084070829
 C         -0.4078967370       -1.2589485614       -0.2904353101
 N         -1.0599811706       -2.4729088383       -0.5217406716
 C         -0.5940099376       -3.5083795946       -1.3115252942
 C          0.5505149462       -3.5832284889       -2.0922521727
 C          0.7637517901       -4.7402405215       -2.8175103799
 C         -0.1396960461       -5.7994757821       -2.7810240125
 C         -1.2947967417       -5.7197229038       -2.0293272033
 C         -1.5307031459       -4.5665672344       -1.2928413146
 C         -2.6116063106       -4.1425135451       -0.4472147768
 C         -3.7942732714       -4.7448512466       -0.0392594575
 C         -4.6304221011       -4.0518278963        0.8130653082
 C         -4.2904566789       -2.7811619815        1.2703884563
 C         -3.1174100222       -2.1634258441        0.8803386497
 C         -2.2850438201       -2.8432927102        0.0029849619
 C          0.9453278379       -1.2440862641        0.0338566654
 C          1.5897335388       -0.0308665612        0.2537366058
 N          2.9499825686       -0.0036942798        0.5715202478
 C          3.8930473684        0.8263910860       -0.0069134654
 C          3.7505564096        1.7548728620       -1.0281298510
 C          4.8777217700        2.4396439920       -1.4405646898
 C          6.1237462911        2.2052730168       -0.8642949783
 C          6.2766746063        1.2648917751        0.1348292027
 C          5.1578353783        0.5655535122        0.5672903123
 C          4.9580674924       -0.4658052353        1.5470565863
 C          5.8066808609       -1.1121901913        2.4358121702
 C          5.2754258262       -2.0613577078        3.2858393015
 C          3.9142641550       -2.3555274848        3.2678788489
 C          3.0504729001       -1.7255009812        2.3920596621
 C          3.5827748335       -0.7903036198        1.5164060861
 C          0.8800795839        1.1612097966        0.1713190221
 C         -3.3870886002        3.3159301697       -0.4257756638
 C         -4.6758886058        3.4119487133        0.0460642930
 H         -4.4668188770        1.2373200891        2.6412853447
 H         -2.1552907016        1.0876972894        1.8081735158
 H          0.3698841320        2.2410976844       -2.4255705798
 H          1.5658269433        4.1273337326       -3.4640815135
 H          1.3304015021        6.4036705635       -2.5362903273
 H         -0.1025402732        6.7789072675       -0.5614863439
 H         -1.2724860719        4.8901848644        0.4956017283
 H         -2.1466433879       -0.0770864781       -0.7069722781
 H          1.2490311330       -2.7622797967       -2.1482589374
 H          1.6499056316       -4.8220739668       -3.4292084890
 H          0.0649303048       -6.6879837814       -3.3590166214
 H         -2.0061255543       -6.5313704496       -2.0153172079
 H         -4.0485608589       -5.7361145185       -0.3822508044
 H         -5.5571257604       -4.4993970718        1.1389096791
 H         -4.9568610464       -2.2669089491        1.9470654745
 H         -2.8609895760       -1.1864021982        1.2578779140
 H          1.4926308293       -2.1690249792        0.1115314265
 H          2.7957103312        1.9377824624       -1.4958520653
 H          4.7887736657        3.1719155378       -2.2293626095
 H          6.9799856677        2.7631917774       -1.2123982816
 H          7.2443507632        1.0707642028        0.5718110547
 H          6.8581519377       -0.8700657822        2.4610962601
 H          5.9177119103       -2.5778368242        3.9830954626
 H          3.5228719021       -3.0896453091        3.9564123113
 H          1.9942561527       -1.9476591139        2.4049283062
 H          1.3710712065        2.0974634063        0.3840474089
 H         -3.0825566413        3.8921650566       -1.2864408048
 H         -5.3863408244        4.0638197262       -0.4401634788
