75
 energy: -118.145461881508 gnorm: 0.000076098499 xtb: 6.7.1 (edcfbbe)
N           -6.83109179961013        4.37626542012785        2.32358750108610
C           -5.80069473602623        4.07350401864029        1.91398577107354
C           -4.53769899376951        3.70380591046508        1.41438412606852
C           -3.83460882493371        2.64228236514012        1.99311720550038
C           -2.60081256220470        2.28307868283221        1.50292358297938
C           -2.03357462184888        2.96637862431370        0.41942547460080
N           -0.79454498226327        2.59483814050586       -0.07478388360000
C            0.06699246295256        3.54818299435303       -0.65240139606924
C            0.76448192545424        3.23947963757072       -1.81805267280474
C            1.62498644130072        4.16584766026024       -2.37681712198706
C            1.79609428802720        5.40706776343024       -1.78558400739614
C            1.10048381555542        5.71817889091677       -0.62833117005928
C            0.24251674570304        4.79575868504664       -0.05872178435915
C           -0.36917087961880        1.26048782674484       -0.02274553862054
C           -1.25466802262980        0.22539007575994       -0.31267930495406
C           -0.81696702636967       -1.09333491847134       -0.27704973421698
N           -1.70550141488625       -2.13227624742843       -0.58041400088374
C           -1.47264214947855       -3.15804688205565       -1.47835834851069
C           -0.38331355222963       -3.37755663636176       -2.30965807916860
C           -0.41861111848136       -4.47906185976601       -3.14393012124972
C           -1.51213190017224       -5.34223851947504       -3.16425038926004
C           -2.60982744053003       -5.11489338327695       -2.35798227632847
C           -2.59769411908385       -4.01344876511029       -1.51167322361507
C           -3.55113758914084       -3.47235582073642       -0.58295885373299
C           -4.81725422962616       -3.87109675467043       -0.17382186261285
C           -5.47600181502301       -3.11380824738520        0.77458705212409
C           -4.88082778172045       -1.98052902089874        1.32470238525886
C           -3.62127373313972       -1.56605401919498        0.93484281661410
C           -2.96373829793916       -2.30886838632143       -0.03523817692088
C            0.50858514792186       -1.38310033346230        0.03106610843259
C            1.39477400176398       -0.34765846875131        0.31131197155023
N            2.72831040566790       -0.63269331757401        0.62607805106903
C            3.83742332421338       -0.02574623495225        0.06519090688525
C            3.91125537876678        0.94299041570144       -0.92567577702946
C            5.16546306200619        1.36198493901378       -1.32766496285114
C            6.32496249608001        0.82787343795932       -0.76968276658666
C            6.25836315068035       -0.15283889667258        0.20019197627816
C            5.00866613070892       -0.58887574701496        0.62156198396223
C            4.57674649482543       -1.57635607392807        1.57177495077267
C            5.25276123466132       -2.43100482255012        2.43321551520378
C            4.51638056057527       -3.25909286683637        3.25714668550760
C            3.12347013589330       -3.22964905438641        3.24057191971223
C            2.42895388136399       -2.38830145599629        2.39175970036228
C            3.16325165685225       -1.57309874002905        1.54194873835697
C            0.95511943105350        0.97063310874888        0.29408715981560
C           -2.73988430883725        4.03385793150689       -0.14924766453131
C           -3.97313933963374        4.39820449224541        0.33941686359719
H           -4.26242903678132        2.11619567791642        2.83393281712069
H           -2.05067614828881        1.47815418380071        1.96680391512468
H            0.62098085634462        2.27466195181445       -2.28305281544421
H            2.15923861275255        3.91900530981261       -3.28247349026231
H            2.46756995223778        6.12896624328794       -2.22502370356129
H            1.23231763604551        6.68236596802274       -0.16007013902426
H           -0.29249473335353        5.03457356191232        0.84891018649605
H           -2.27380380005111        0.44688107876060       -0.58968110818656
H            0.46264686844352       -2.70707769304975       -2.31734378115837
H            0.41921684591675       -4.67245024483320       -3.79790582054241
H           -1.50070834196298       -6.19399067727555       -3.82835124306067
H           -3.46505042165035       -5.77345159190029       -2.38587676291852
H           -5.27211225282931       -4.75782883598549       -0.58932503392223
H           -6.46281452665333       -3.40467153097997        1.10375967494709
H           -5.41497174295262       -1.41499093358787        2.07437666219117
H           -3.16546295361014       -0.69574552947274        1.38002069434848
H            0.84795014916900       -2.40631739815118        0.04877497915345
H            3.02209765379844        1.35581431214646       -1.37613550331567
H            5.24827565674076        2.11896044185511       -2.09372354124932
H            7.28701743118060        1.18283452259618       -1.10902076385084
H            7.15670801711158       -0.57768175389657        0.62254520925655
H            6.33218794070399       -2.44034577644858        2.45852893723752
H            5.02267913192908       -3.93297808515502        3.93263948708565
H            2.57313729459128       -3.87615620857574        3.90864115762432
H            1.34985637924257       -2.36184651128356        2.40355805839949
H            1.63619326383142        1.76965194206240        0.54196121916436
H           -2.31408357343321        4.56720258581553       -0.98553183526827
H           -4.51669909130046        5.21616144282082       -0.11009578584391
