61
 energy: -97.837492826429 gnorm: 0.000058909661 xtb: 6.7.1 (edcfbbe)
C           -8.06029341339413        3.01860853781168        0.03407523710791
C           -6.88876313780423        3.11135585062518       -0.69939437048428
C           -5.98917211809963        2.06335924216745       -0.71703353223602
C           -6.24844451018728        0.90324128348725        0.01210212175048
N           -5.33842565731387       -0.16183298271301        0.00099003485220
C           -5.81418754140092       -1.47879577500683       -0.01566640190466
C           -6.95113190425364       -1.80836431837380       -0.75300680596675
C           -7.42233535914982       -3.10671025245760       -0.76192999596692
C           -6.76765621874845       -4.09607385352515       -0.04669843765683
C           -5.63618116793140       -3.77441516819339        0.68497308162740
C           -5.16198704094909       -2.47728270054855        0.70722957081216
C           -3.96674109792343        0.09091106301604        0.00551444572877
C           -3.44635567893484        1.18324307914322        0.70300702066554
C           -2.09271160575348        1.43741666462553        0.69807323248322
C           -1.20530175321256        0.60707711646847        0.01122610825308
C            0.22992047706243        0.88007517023829        0.00700561980162
C            0.71801485542802        2.17944777096222       -0.01111073839211
N            2.00934298866428        2.46475908616061       -0.02300475369422
C            2.94177425993522        1.54214194450113       -0.01775269282113
N            4.22860955481031        1.85002536909149       -0.02062451701794
C            5.14148557823159        0.89104082656395       -0.01225431110294
C            4.75314136541651       -0.48148317209482        0.00065569534867
N            3.48180689199363       -0.81657560978767       -0.00028857942591
C            2.53893774611484        0.12618405452401       -0.00766705233983
C            1.18315318329110       -0.15199496623736        0.00595796161030
C            5.95278718083248       -1.29736513928301        0.00929047344271
C            6.22595053874983       -2.64225101585870        0.02391856047304
C            7.57554189268686       -3.04580405953189        0.02901587077553
C            8.62255969314748       -2.15587651489675        0.01997460652602
C            8.37472376917127       -0.76314307026650        0.00493824608719
C            9.31497414705479        0.29563601362051       -0.00586955273322
C            8.88401732626688        1.60050258564858       -0.01970575667472
C            7.52295876682880        1.96183387664281       -0.02378856226408
C            6.58421219954498        0.95793897096317       -0.01359403740580
C            7.03481608470680       -0.38598525033308        0.00033069919504
C           -1.72997215923385       -0.48838368959435       -0.67670205255691
C           -3.08427041551212       -0.74051807416029       -0.68713471389393
C           -7.42792041638869        0.81570349183354        0.75079917788599
C           -8.32511068103851        1.86595955311500        0.75537566193424
H           -8.76212190836366        3.83861664875571        0.04307465198816
H           -6.67703802763230        4.00359777607601       -1.27007943040500
H           -5.08135408531167        2.13341352443647       -1.29829190230209
H           -7.45795161107855       -1.04034738935885       -1.31885549907051
H           -8.30275923653913       -3.34894136819140       -1.33882866831357
H           -7.13691549110425       -5.11026081588153       -0.05891034789888
H           -5.12302086214004       -4.53796658473788        1.25095610090376
H           -4.28627768025051       -2.22661584754041        1.28790233702041
H           -4.11486290241885        1.82625942556648        1.25643258969525
H           -1.71083235665225        2.27468927955702        1.26297311165499
H            0.05968389596937        3.03509091615385       -0.04417183274706
H            0.87697835963485       -1.18522081372627        0.04469496662296
H            5.43894900093707       -3.38081638622289        0.03170269157271
H            7.78812535289884       -4.10541652342820        0.04068061839528
H            9.64134967086343       -2.51576258024364        0.02442446796643
H           10.37158368961889        0.07069467108711       -0.00314928064563
H            9.61825381288830        2.39367859962164       -0.02778087842430
H            7.23669112115291        3.00212112993466       -0.03459042168332
H           -1.06923037711721       -1.13179697302482       -1.23836713004254
H           -3.47281674246652       -1.58220654332243       -1.24154501251255
H           -7.63191825193029       -0.07865184884380        1.32127789387314
H           -9.23381021266488        1.78666345051751        1.33381459584768
