61
 energy: -97.874545958247 gnorm: 0.000034822601 xtb: 6.7.1 (edcfbbe)
C           -8.03125651783000        3.02983808772737        0.04324217167015
C           -6.85804289415047        3.12143698569966       -0.68760115918352
C           -5.96184487725452        2.07048382075766       -0.70730919660412
C           -6.22649649222216        0.90894269068489        0.01735320433789
N           -5.32142525772072       -0.16077478946434        0.00197036549205
C           -5.80535704300410       -1.47560506132688       -0.01807236858481
C           -6.93922576777368       -1.79842534646638       -0.76253524885951
C           -7.41860779399040       -3.09388634978885       -0.77266202321562
C           -6.77506341913326       -4.08610487521442       -0.05133777114845
C           -5.64631852622537       -3.77087837964236        0.68726722868069
C           -5.16395386979075       -2.47672599553722        0.71047609645110
C           -3.94932604037838        0.08163260430063        0.00470205316967
C           -3.41864237349696        1.16934430197168        0.70193107037318
C           -2.06281650776097        1.41309943884445        0.69391785028692
C           -1.18542443968478        0.57487429509748        0.00481744340817
C            0.25455710808044        0.83231778206111       -0.00309110826982
C            0.75381119132769        2.15736598831177       -0.04065314504677
N            2.01453401926706        2.47900172915474       -0.05062210902273
C            2.93108287239072        1.49906116842448       -0.02730135471837
N            4.22961408316977        1.87771397513418       -0.03497955318180
C            5.09517400344106        0.90530710522453       -0.01552477123060
C            4.71051679564298       -0.49400145833222        0.01242522378884
N            3.46738803456550       -0.88123495785071        0.02008472137221
C            2.55041813486332        0.12152685152466        0.00015564078060
C            1.18311478352864       -0.18884525850593        0.01462210994929
C            5.92535234192731       -1.29576458028460        0.02564603574952
C            6.21127243350768       -2.63743968366429        0.05037009838500
C            7.56291360876385       -3.03065487223017        0.05435672596589
C            8.60116444181845       -2.13004434689121        0.03466756715698
C            8.34222600098314       -0.74083445950775        0.00905450519235
C            9.27499788725926        0.32096292036034       -0.01388490339718
C            8.84292415248956        1.62576725031640       -0.03794640009047
C            7.48024977809471        1.97898043648796       -0.04136419722825
C            6.54889722664881        0.97164523857581       -0.01953054999571
C            6.99505525725847       -0.37042048994165        0.00548884321407
C           -1.71922279774471       -0.51619537846561       -0.68230703259566
C           -3.07523978747806       -0.75730414086005       -0.69045515066781
C           -7.40732640172899        0.82255372883933        0.75372760337665
C           -8.30120575817145        1.87568402848599        0.76017361252676
H           -8.73056291580733        3.85194869526162        0.05348089744105
H           -6.64224564397954        4.01495979988171       -1.25467165208661
H           -5.05305265321647        2.13959679098075       -1.28716565975958
H           -7.43734278357291       -1.02775131604548       -1.33245572639633
H           -8.29660309456011       -3.33154079421822       -1.35505536406599
H           -7.15098574707744       -5.09781235925959       -0.06408777582099
H           -5.14196497017955       -4.53674231778565        1.25793747160354
H           -4.29037789181097       -2.23054277626802        1.29628946064279
H           -4.08077786358518        1.81728470980075        1.25713503335180
H           -1.67306558893991        2.24603170200742        1.25990641966329
H            0.06366397609378        2.99067697824326       -0.08427149484766
H            0.89165500932323       -1.22772251678818        0.06197245469404
H            5.42727785531655       -3.37856413347201        0.06635329606816
H            7.78652709935712       -4.08781676969817        0.07374924999950
H            9.62355271631529       -2.47991480388234        0.03853465732054
H           10.33250906805266        0.09873098697460       -0.01252700969048
H            9.57581778038031        2.41977878387839       -0.05524492061284
H            7.18274945646534        3.01568264656578       -0.06081026977487
H           -1.06349734169221       -1.16346693161213       -1.24553707170276
H           -3.47239596011153       -1.59480238177646       -1.24494076057435
H           -7.61541278970673       -0.07327312089034        1.32037720164076
H           -9.21143251480999        1.79714408178462        1.33624412899978
