61
 energy: -97.874547027674 gnorm: 0.000034197181 xtb: 6.7.1 (edcfbbe)
C           -7.61952718311295        3.03795765018821        0.16423681941484
C           -6.45411874008477        3.16601312871820       -0.57359177885631
C           -5.54556373864408        2.12720559421387       -0.63284024984487
C           -5.78982408239752        0.94122324170083        0.05855438593533
N           -4.87227124087350       -0.11674785110647        0.00321222987200
C           -5.34243285055886       -1.43529158580430       -0.05880240420477
C           -6.47726224346650       -1.74412322713322       -0.80777350285177
C           -6.94342818988738       -3.04336910942706       -0.86012898771362
C           -6.28551846620958       -4.05313947593224       -0.17714725613697
C           -5.15602247818274       -3.75172371806194        0.56605658465010
C           -4.68691434077314       -2.45413564429044        0.63160758678858
C           -3.50324015594012        0.14149190793064        0.00714703424522
C           -2.98240102543813        1.21629526458953        0.73141397356079
C           -1.62949818972107        1.47582276554004        0.72543610379069
C           -0.74500063829406        0.66577845124159        0.01225798719844
C            0.69217004357415        0.93853698778144        0.00876954600163
C            1.17743447261544        2.26922464715477        0.00071493012514
N            2.43474557151154        2.60411821360916       -0.00257636478317
C            3.36140860755038        1.63344962670975       -0.00065452693533
N            4.65592729195426        2.02568414665829        0.00037569610962
C            5.53157071466706        1.06216292690584        0.00026113078629
C            5.16156349790552       -0.34135766053092       -0.00100306749313
N            3.92254933226988       -0.74161435782094       -0.00332229295912
C            2.99517086346939        0.25172060490482       -0.00321756331155
C            1.63117049466758       -0.07311525725529        0.00357673740142
C            6.38471506571443       -1.13048879372269       -0.00159370986733
C            6.68462976194949       -2.46932588546346       -0.00257371687542
C            8.04031153510548       -2.84839862828269       -0.00321019733292
C            9.06910010373996       -1.93677200123946       -0.00296576710313
C            8.79566717891084       -0.55010668053590       -0.00195933155014
C            9.71726395994486        0.52166044753022       -0.00186203724456
C            9.27155525402354        1.82209133958084       -0.00103612607650
C            7.90525833514131        2.16102790490939       -0.00019024438923
C            6.98452001633984        1.14375236389475       -0.00024923356847
C            7.44469114328079       -0.19379956657221       -0.00117282828360
C           -1.26870898946631       -0.41236299418241       -0.70237416924257
C           -2.62202810606412       -0.66807556735222       -0.71350524779003
C           -6.96289402614609        0.81802920705467        0.80198941625987
C           -7.86925858223104        1.85944497360299        0.84810242220492
H           -8.32850896508352        3.85076231503918        0.20542261435242
H           -6.25423996969539        4.07882654797600       -1.11519405521902
H           -4.64283439465864        2.22485529865094       -1.21803557887537
H           -6.98654575114543       -0.95947771075022       -1.34798783429175
H           -7.82234987899467       -3.26985998191582       -1.44556253139007
H           -6.65087198180440       -5.06774914119979       -0.22314700389808
H           -4.64048864097077       -4.53156949169277        1.10703431850225
H           -3.81276988898277       -2.21929637795296        1.22120961350931
H           -3.64968907297954        1.84157935392777        1.30607150912596
H           -1.24720778219382        2.29813376493266        1.31171030840318
H            0.47844350037698        3.09593038608775       -0.02395487307608
H            1.35026728252641       -1.11570302395526        0.02773240136787
H            5.90841063583446       -3.21876578412155       -0.00278948227119
H            8.27495632028311       -3.90334215778300       -0.00392876380416
H           10.09508493969738       -2.27596040297867       -0.00357539428622
H           10.77705181956751        0.31055243356797       -0.00256620447385
H            9.99609024060851        2.62392227464874       -0.00109645742588
H            7.59689606719299        3.19473484442427        0.00042657423631
H           -0.60741009420192       -1.03713405129916       -1.28421541535368
H           -3.01142400499171       -1.49448987543884       -1.28967328677199
H           -7.15510945581074       -0.09711786353056        1.34279274969795
H           -8.77325690141946        1.75242525364103        1.42936381199647
