  67
       -106.91037268
 C          8.9015593853        3.2068436434       -1.2898140268
 C          8.9328745231        1.8620183304       -1.6243640250
 C          7.8933422560        1.0282509358       -1.2594345847
 C          6.8057892237        1.5362337750       -0.5477067026
 C          5.6766902366        0.6958179241       -0.1869450403
 N          4.4296315023        1.1634761929       -0.2683055612
 C          3.6233932215        0.1399998182        0.0239762409
 C          2.2283132206        0.1858580320        0.0447117630
 C          1.5322744167        1.3886317819       -0.2871289809
 C          0.1760064580        1.3846265085       -0.3316100350
 C         -0.5585747284        0.1948130100       -0.0444122462
 C         -1.9872274817        0.1434988849       -0.0278292724
 C         -2.7674413846        1.3111058465        0.1336401060
 C         -4.1372837700        1.2647994464        0.1448062164
 C         -4.8095280706        0.0473987632       -0.0169027217
 N         -6.2031058013       -0.0000384414       -0.0136760723
 C         -6.9918635264       -0.6524707823       -0.9416905333
 C         -6.6209785807       -1.3441518406       -2.0865999706
 C         -7.6253502135       -1.8807061858       -2.8701338607
 C         -8.9687080038       -1.7271603314       -2.5362834624
 C         -9.3453692531       -1.0141120409       -1.4136617732
 C         -8.3547914499       -0.4675887906       -0.6112022771
 C         -8.3799272774        0.3341187248        0.5819685083
 C         -9.4028333272        0.8200499601        1.3827506857
 C         -9.0715159673        1.5551925363        2.5054298137
 C         -7.7404019343        1.7899615416        2.8411358962
 C         -6.7042771971        1.3155161319        2.0589276732
 C         -7.0311011882        0.6021889538        0.9137251750
 C         -4.0570570499       -1.1219199681       -0.1820839418
 C         -2.6870708837       -1.0751724372       -0.1778702894
 C          0.2376180613       -0.9305285299        0.3077652113
 N          1.5278998591       -0.9337535211        0.3666245019
 O          4.3177436820       -1.0073999887        0.2962121922
 C          5.6369177324       -0.6665091202        0.2031677588
 C          6.6234652230       -1.6227937796        0.5718251050
 C          6.2653683100       -2.9837852486        0.6534064249
 C          7.1964530569       -3.9322216074        1.0079889629
 C          8.5023240029       -3.5594473920        1.3040088776
 C          8.8614518382       -2.2175309889        1.2566954372
 C          7.9425000416       -1.2562332984        0.9015190207
 C          6.7679285769        2.8959012812       -0.2398645033
 C          7.8138274701        3.7219732454       -0.6023592690
 H          9.7193737441        3.8530374883       -1.5728389161
 H          9.7706134505        1.4622951698       -2.1769234524
 H          7.9086667953       -0.0143099143       -1.5414352359
 H          2.1220827302        2.2518696691       -0.5478520369
 H         -0.3540758597        2.2751623378       -0.6344220177
 H         -2.2770313039        2.2628206728        0.2661023300
 H         -4.7110818320        2.1738052100        0.2502362880
 H         -5.5841461186       -1.4499223338       -2.3666692008
 H         -7.3619392933       -2.4271740664       -3.7634552393
 H         -9.7240150377       -2.1636438105       -3.1724543222
 H        -10.3872083659       -0.8778619875       -1.1664845132
 H        -10.4342149333        0.6212496927        1.1340815266
 H         -9.8527902847        1.9449124527        3.1405140377
 H         -7.5119703006        2.3500943903        3.7355624164
 H         -5.6760405972        1.4824790430        2.3409860067
 H         -4.5682700260       -2.0679083935       -0.2838024028
 H         -2.1339846601       -1.9916410245       -0.3128627980
 H         -0.2370268151       -1.8473395829        0.6332739133
 H          5.2501050653       -3.2659106136        0.4208069247
 H          6.9107490388       -4.9729542401        1.0565120257
 H          9.2311242299       -4.3062358723        1.5806657740
 H          9.8694275250       -1.9229886683        1.5105736086
 H          8.2215285510       -0.2142774045        0.9039316183
 H          5.9104712807        3.2833015004        0.2881010320
 H          7.7818840285        4.7721642294       -0.3518213340
