  56
        -74.22833759
 C         -7.4804624600        4.4682182167        1.2811751397
 C         -6.8401864595        3.4319385721        0.3657533077
 C         -7.3628759905        2.0247459403        0.6446642196
 C         -6.7139413904        0.9833950504       -0.2632972784
 C         -7.2283385610       -0.4250973195        0.0206744791
 C         -6.5785292475       -1.4766265827       -0.8902579088
 C         -5.0997082375       -1.5579689253       -0.6519721644
 C         -4.5992731751       -2.2251786119        0.4604636514
 C         -3.2445741439       -2.2562082475        0.7162440393
 C         -2.3324873578       -1.6121423693       -0.1256493142
 C         -0.9227118974       -1.6478702626        0.2107576040
 C          0.0489594686       -0.9307150783       -0.3735972067
 C          1.4528042404       -0.9285775716       -0.0177778493
 C          2.0088030352       -1.8475657802        0.9169764533
 C          3.3245286318       -1.8065198591        1.2469504293
 C          4.2006153015       -0.8457588285        0.6768805134
 C          5.5479253971       -0.7749126396        1.0091026899
 C          6.3907933908        0.1753620925        0.4356906186
 C          7.7659636149        0.2623113461        0.7676115132
 C          8.5673603603        1.1990643028        0.1898417119
 C          8.0408901979        2.1053908947       -0.7547545700
 C          6.7249560859        2.0556365584       -1.0987176049
 C          5.8560177021        1.0956906868       -0.5198941395
 C          4.5060605655        1.0240593901       -0.8518037757
 C          3.6625770542        0.0766714089       -0.2751267819
 C          2.2892898046       -0.0018416995       -0.5960658229
 C         -2.8402259362       -0.9597071471       -1.2516985671
 C         -4.1960993898       -0.9359838936       -1.5058103776
 H         -7.2725434033        4.2357334008        2.3233848701
 H         -7.0921964512        5.4613620555        1.0673108702
 H         -8.5596008551        4.4845531757        1.1438555697
 H         -5.7564956739        3.4457104593        0.5031494649
 H         -7.0445411591        3.6925099917       -0.6753292110
 H         -7.1633501697        1.7675676410        1.6877945872
 H         -8.4462826876        2.0074894604        0.5019166506
 H         -5.6312423458        1.0066401564       -0.1200155144
 H         -6.9162239963        1.2386066695       -1.3065115264
 H         -7.0231673592       -0.6790436198        1.0630676560
 H         -8.3111379720       -0.4511791669       -0.1230613914
 H         -7.0368765232       -2.4476333854       -0.6875198896
 H         -6.7741227045       -1.2175345188       -1.9327214032
 H         -5.2825329627       -2.7267262829        1.1316896286
 H         -2.8787127157       -2.7795328876        1.5889898743
 H         -0.6798230367       -2.3020417899        1.0379482031
 H         -0.2058679116       -0.2488746397       -1.1744863175
 H          1.3709887320       -2.5954154246        1.3620630857
 H          3.7333621663       -2.5122155418        1.9567420330
 H          5.9523133772       -1.4720603445        1.7305839283
 H          8.1643410760       -0.4342807761        1.4918764387
 H          9.6147478238        1.2582485916        0.4480156902
 H          8.6966090769        2.8388145945       -1.2011886956
 H          6.3160897996        2.7478433701       -1.8213177064
 H          4.1021769087        1.7219435685       -1.5727538169
 H          1.8944643246        0.7044914788       -1.3141795039
 H         -2.1692474160       -0.4706012389       -1.9411982519
 H         -4.5636114863       -0.4236763602       -2.3840605328
