80
 energy: -123.109979363402 gnorm: 0.000027101785 xtb: 6.7.1 (edcfbbe)
C            6.99830481085742       -3.72133368455085       -1.50882462114159
C            5.94025751189059       -3.05035348033636       -2.10199996547165
C            5.50378792343129       -1.84289167793111       -1.59237784433387
C            6.12174788211342       -1.29261919714486       -0.46720580337391
N            5.68003129841788       -0.07389003163849        0.05712306592262
C            6.61656404500232        0.83793125132292        0.55955157448564
C            6.33487569739345        1.57756756584166        1.70904435323537
C            7.26350435438283        2.47393253965993        2.20105091332427
C            8.48187451492163        2.64456201992709        1.56145641908145
C            8.76737524053186        1.90922112236841        0.42174995355019
C            7.84462064243261        1.01193909685898       -0.08044197609823
C            4.32546256394158        0.23832987393065        0.05768701019399
C            3.89282266056985        1.55206622630712       -0.10854598445100
C            2.53379939208468        1.82682309858365       -0.11394653451974
C            1.57097901562025        0.83032462767464        0.05126109484617
C            1.99813738034380       -0.54223150282100        0.23955119138273
C            3.37930048949950       -0.78550750075850        0.23667235716625
C            1.11310726441391       -1.63665705406642        0.42782510541502
C           -0.27488611198078       -1.40121149938932        0.39867902191359
C           -1.53976869165746       -2.05784826068112        0.53797353129724
C           -1.89483067572203       -3.37814891517532        0.79910656571174
C           -3.23200863422196       -3.71303446854048        0.86403951696038
C           -4.22488741433440       -2.77021432731680        0.61413779166803
C           -3.91535267090059       -1.44000834573325        0.32620761626864
N           -4.95076954975881       -0.55729849331061       -0.04858494088681
C           -4.88700990357495        0.09427107855574       -1.27864989188148
C           -4.01583136024837       -0.34602682053276       -2.27743795493407
C           -3.92628560717459        0.33201063236270       -3.47736918406884
C           -4.70804365993381        1.44996061773978       -3.71646879181488
C           -5.58501932142169        1.88608278720149       -2.73617603983795
C           -5.67347262509953        1.22378276016279       -1.52884545959209
C           -6.12561693858520       -0.58738499748881        0.71409741980016
C           -6.02807272970527       -0.60397816063251        2.10620091061083
C           -7.16907784541954       -0.64548202883457        2.88349849256492
C           -8.42098316412625       -0.66977871825617        2.28930589051920
C           -8.52282274658859       -0.66406460913519        0.90718914787304
C           -7.38738576085979       -0.62814207103786        0.12058788258712
C           -2.57603882144504       -1.05806606366256        0.36712092910809
N           -1.95188048000392        0.16412801143814        0.20085162260857
C           -2.10412551324050        1.55312831964359        0.13978801702460
C           -3.22486987140178        2.33477575312955        0.27590236594002
C           -3.08425328763771        3.71949536451601        0.18902973207707
C           -1.83918264160648        4.29764197972116       -0.00870799941064
C           -0.69312396601444        3.52451364209906       -0.08736643085084
C           -0.79448668154794        2.13751843087936        0.00408502364974
C            0.16926717376493        1.07611523372309        0.05055015491447
C           -0.61404309774346       -0.07328474257924        0.19346453074346
C            7.18687589707495       -1.97238729225269        0.12682274280571
C            7.61901166941808       -3.17581035971202       -0.39522112136763
H            7.33787938845405       -4.66327234703130       -1.91209223170235
H            5.45637027542119       -3.46519120335451       -2.97391584012955
H            4.68979200076258       -1.31161094132712       -2.06316647666356
H            5.38999336250927        1.43526084621714        2.21225655479636
H            7.03723098815225        3.03779287059232        3.09395287413256
H            9.20436449020809        3.34632974270802        1.94966176587420
H            9.71191349352739        2.04076941374091       -0.08501288929558
H            8.06192697777574        0.44832280633360       -0.97585210142900
H            4.60892564372293        2.34549560193455       -0.25774077182125
H            2.20612222614218        2.84236393159228       -0.27218636632092
H            3.72767724795002       -1.79297304488182        0.41247035789597
H            1.52400776269395       -2.62309728866746        0.57598965586693
H           -1.12763791525639       -4.12378358575907        0.94404785581644
H           -3.52266086710258       -4.73269577496342        1.07068624604620
H           -5.26138615962102       -3.07279200678251        0.60486860291251
H           -3.41451224997676       -1.22814062506039       -2.11409484874512
H           -3.24397358357244       -0.02434548401880       -4.23549385401838
H           -4.63591387686407        1.97524359635738       -4.65666696191849
H           -6.19874428000368        2.75830341096625       -2.90784432458694
H           -6.34661606902908        1.58810693232357       -0.76639670928558
H           -5.05098255396374       -0.58387041504276        2.56736463891945
H           -7.07984141015588       -0.65353275888277        3.95989246698616
H           -9.31131933657888       -0.69927632632632        2.89908628145182
H           -9.49409026681533       -0.69950678917017        0.43570065687567
H           -7.47001964627797       -0.64830472898007       -0.95627579678877
H           -4.19197789043584        1.90079194137933        0.46388693008661
H           -3.95956304940323        4.34417874453348        0.28363028502937
H           -1.75925924712917        5.37301972628037       -0.07972671276438
H            0.27047306318186        3.99624919418299       -0.20457348131249
H            7.66068835065103       -1.55552153164892        1.00341055812342
H            8.43990890343512       -3.69597070988517        0.07578773653280
