80
 energy: -123.184888602140 gnorm: 0.000045282163 xtb: 6.7.1 (edcfbbe)
C            7.08903988535487       -3.84891146870700       -0.80908644226214
C            6.03318959608434       -3.31798293448508       -1.53280411938273
C            5.55848126106808       -2.05132511805863       -1.25248147171239
C            6.13223762795978       -1.29469917274545       -0.23013175015973
N            5.65107267708862       -0.01169314320804        0.05772094530158
C            6.53342063536043        1.00301842367385        0.44368214358258
C            6.15632482465602        1.93986316968429        1.40672720631438
C            7.02743831011949        2.94550279380044        1.77938726548578
C            8.28765640775918        3.03030550637615        1.20987211381900
C            8.66881398079444        2.10069681613687        0.25526810143934
C            7.80115516144003        1.09782842720064       -0.13173659731121
C            4.27641296794541        0.24974889697891       -0.00918705727046
C            3.82203321345200        1.48626876630367       -0.51387466790408
C            2.48472190939143        1.74976881863047       -0.59272740222774
C            1.52010222641040        0.80842377335297       -0.18824509887408
C            1.96699301329763       -0.46027775259058        0.32396145830049
C            3.35498395179686       -0.68802527956813        0.40047255277122
C            1.08561083236162       -1.48199406539173        0.78212198536818
C           -0.27039560884346       -1.27187481454813        0.70790153364474
C           -1.54755034281472       -1.88915522067207        1.02792746761666
C           -1.86005993762507       -3.10484739825365        1.61121080813319
C           -3.19373110760585       -3.43452842220294        1.78648817927429
C           -4.19538646792080       -2.59764495864914        1.32422431551536
C           -3.91609147468576       -1.37526367524800        0.71054155660730
N           -4.97021051117603       -0.61880396262885        0.15388910581890
C           -4.96203825711812       -0.34313576594010       -1.21467565237025
C           -4.11339315579519       -1.03386053875983       -2.08074185395614
C           -4.07590894530173       -0.71944800310892       -3.42592671249222
C           -4.88838841190474        0.27576386667575       -3.94079246305804
C           -5.74170168210924        0.95948544219854       -3.08968121619116
C           -5.77814205690780        0.66144034038021       -1.74272518336020
C           -6.11861424251490       -0.44999905989116        0.94265523330826
C           -5.96882793752063       -0.08240967896284        2.27992102665342
C           -7.07824032816631        0.08196759247777        3.08665556129333
C           -8.35092073743580       -0.11432487955404        2.57528544816146
C           -8.50456254796838       -0.48946099811674        1.25030127172926
C           -7.40037536369252       -0.66351510624286        0.43747955352188
C           -2.58158681396413       -0.98369847157628        0.63011091047734
N           -1.98743938149782        0.17743080228818        0.14175336203919
C           -2.15897408541526        1.49331383397069       -0.26417480684542
C           -3.29788543434720        2.27310988000953       -0.33739062947117
C           -3.17167760103568        3.58234475377978       -0.76772358263703
C           -1.93244904654420        4.11549244088645       -1.10246289977198
C           -0.77880208885921        3.36254359586654       -0.98614484019167
C           -0.86770420637238        2.04661499580366       -0.55281080395823
C            0.12088137064788        1.03114182827725       -0.24852375718655
C           -0.64121291106948       -0.03497767266563        0.17224164323035
C            7.19099540888685       -1.83650333780318        0.49893866237873
C            7.66453313175383       -3.10105214635364        0.20548366713450
H            7.45978525643167       -4.83781718807430       -1.03374293254069
H            5.58029010050647       -3.89134596746028       -2.32882230151714
H            4.74017598305258       -1.63779891899254       -1.82396804307750
H            5.17872166306066        1.87024425362127        1.86159839385992
H            6.72237768136109        3.66275975548881        2.52767584505443
H            8.96727630846014        3.81481253462464        1.50727606549501
H            9.64701539087260        2.16233452437393       -0.19947152576372
H            8.09769822500076        0.38140932953883       -0.88414924720722
H            4.54597779883178        2.21674242424252       -0.84410722123361
H            2.14754425195731        2.69510333051208       -0.98814446577983
H            3.70143866965198       -1.63492012930110        0.79028546828782
H            1.51162450507464       -2.38976450884501        1.18228544967683
H           -1.07493488496590       -3.77732953125792        1.92001050878151
H           -3.46151052074545       -4.37038084992547        2.25308096273804
H           -5.22928631421295       -2.89757999663024        1.41476149450945
H           -3.48446223484620       -1.82592244952540       -1.70139249569894
H           -3.40893560254547       -1.26592557319704       -4.07727068149172
H           -4.85806445026166        0.51642731506356       -4.99274703245492
H           -6.38006540818598        1.74075398365394       -3.47630376487298
H           -6.43677584859069        1.21598753772240       -1.09013892479390
H           -4.97601701422490        0.07072776090184        2.67848202617390
H           -6.94749259016260        0.37087092359229        4.11934022189438
H           -9.21688407755471        0.01906313924835        3.20612713387778
H           -9.49234663264773       -0.65994373384404        0.84710499091888
H           -7.52518394613978       -0.97635937478686       -0.58896915873655
H           -4.25914758462638        1.88154107065829       -0.05309556924922
H           -4.05390038310770        4.20164201499657       -0.83489925882734
H           -1.86893487538333        5.14011564307649       -1.43855507904278
H            0.18002978693065        3.80040905481003       -1.21754051208398
H            7.63622143237127       -1.26018804965319        1.29703334812128
H            8.48393560722077       -3.50833104343532        0.78008623464711
