  80
       -123.06264666
 C          6.9622477533       -3.7209776935       -1.5349081599
 C          5.8898002521       -3.0560035000       -2.1077648120
 C          5.4635946968       -1.8458651859       -1.5974467663
 C          6.1056012742       -1.2855611194       -0.4908138968
 N          5.6693257369       -0.0682947242        0.0356600169
 C          6.6029176550        0.8417844745        0.5405813140
 C          6.3122010531        1.5877443237        1.6835284187
 C          7.2391224396        2.4813176441        2.1824247624
 C          8.4649075841        2.6443324183        1.5558161931
 C          8.7582161049        1.9056772082        0.4207770238
 C          7.8372888531        1.0108395582       -0.0880896682
 C          4.3125714049        0.2422257200        0.0420500046
 C          3.8775095654        1.5518394665       -0.1380710889
 C          2.5165922678        1.8218322414       -0.1443062809
 C          1.5590463835        0.8237955748        0.0351722379
 C          1.9907815887       -0.5439403959        0.2433104286
 C          3.3722097326       -0.7824895875        0.2394161186
 C          1.1118763050       -1.6394373933        0.4520219833
 C         -0.2765894518       -1.4095857600        0.4269954586
 C         -1.5385983674       -2.0666440751        0.5852673973
 C         -1.8931752764       -3.3820407749        0.8673960008
 C         -3.2304414372       -3.7155105118        0.9411445713
 C         -4.2253732177       -2.7790971110        0.6753416047
 C         -3.9158832548       -1.4545600650        0.3651181321
 N         -4.9443511491       -0.5781554168       -0.0341015068
 C         -4.8447931140        0.0882442587       -1.2519278849
 C         -3.9497574175       -0.3453948689       -2.2320569414
 C         -3.8162813603        0.3537277125       -3.4151002272
 C         -4.5761104287        1.4861151020       -3.6557978999
 C         -5.4790202369        1.9131788305       -2.6957848415
 C         -5.6136573806        1.2287610387       -1.5056159542
 C         -6.1286509260       -0.5945208427        0.7074311319
 C         -6.0541732976       -0.6221218242        2.1009193544
 C         -7.2076772166       -0.6494207977        2.8591190815
 C         -8.4498415513       -0.6485973145        2.2446064091
 C         -8.5291022851       -0.6314344692        0.8612909866
 C         -7.3811045661       -0.6091441489        0.0933193430
 C         -2.5770129734       -1.0708335270        0.4038469995
 N         -1.9576564793        0.1475492820        0.2183322515
 C         -2.1172484083        1.5329254398        0.1376867755
 C         -3.2383913367        2.3112501322        0.2852586068
 C         -3.1052122326        3.6946280896        0.1672530513
 C         -1.8671404309        4.2738065742       -0.0642738625
 C         -0.7179998540        3.5047862803       -0.1436740563
 C         -0.8120116585        2.1201768289       -0.0244455367
 C          0.1567747499        1.0640462765        0.0336798112
 C         -0.6207837584       -0.0859427325        0.2031597755
 C          7.1850589383       -1.9598517925        0.0826274949
 C          7.6075354022       -3.1656715893       -0.4409209280
 H          7.2936871290       -4.6653388903       -1.9382925893
 H          5.3853159863       -3.4785584395       -2.9638312113
 H          4.6372995960       -1.3200235850       -2.0516277839
 H          5.3612053755        1.4504024714        2.1761562218
 H          7.0058383572        3.0489304436        3.0707918103
 H          9.1866876144        3.3431984231        1.9496427447
 H          9.7082669768        2.0317155281       -0.0766567032
 H          8.0611042995        0.4435909088       -0.9797014054
 H          4.5918335394        2.3444743812       -0.2984219051
 H          2.1849323742        2.8338223235       -0.3144975090
 H          3.7262555210       -1.7855905001        0.4256818776
 H          1.5280712371       -2.6210118588        0.6134424881
 H         -1.1263867229       -4.1253905146        1.0222377943
 H         -3.5196957224       -4.7315887336        1.1644569928
 H         -5.2610575702       -3.0828446144        0.6687225473
 H         -3.3644508949       -1.2368123183       -2.0669779368
 H         -3.1160606152        0.0041973845       -4.1594974069
 H         -4.4680779998        2.0290628139       -4.5820133606
 H         -6.0771742253        2.7953221974       -2.8701506947
 H         -6.3062024016        1.5859529136       -0.7580073538
 H         -5.0843904444       -0.6209814686        2.5763475473
 H         -7.1367210338       -0.6663035679        3.9365112515
 H         -9.3500712021       -0.6671846771        2.8394266240
 H         -9.4932473503       -0.6473440801        0.3748274867
 H         -7.4457828675       -0.6199575554       -0.9845431897
 H         -4.1973180789        1.8786941561        0.5111354845
 H         -3.9806803840        4.3178456991        0.2668320501
 H         -1.7938531797        5.3474365144       -0.1587661213
 H          0.2413030866        3.9785561930       -0.2833884117
 H          7.6781764948       -1.5365651653        0.9454231348
 H          8.4404023852       -3.6803626135        0.0143951569
