  106
       -162.39019513
 C         -5.3590750550       -5.2297858919       -1.1468924850
 C         -4.3949801364       -4.6095399802       -1.9232642607
 C         -4.0312773908       -3.3012529573       -1.6633861840
 C         -4.6328828598       -2.5912579935       -0.6279442811
 C         -4.2278972098       -1.2006882667       -0.3554817464
 C         -2.8853852851       -0.9075255808       -0.2287600312
 C         -2.4244465373        0.3911274326        0.0286001496
 C         -1.0010138976        0.6319249384        0.0470261941
 C         -0.1212526718       -0.3310364005        0.5955256423
 C          1.2311162197       -0.1707297095        0.5771551380
 C          1.8235044951        0.9698829494       -0.0408800632
 C          3.1959733539        1.1951290643       -0.1902425482
 N          3.6972521404        2.4206802343       -0.4412314240
 C          5.0139271121        2.3111803034       -0.4037574276
 C          5.9759845729        3.3555672602       -0.5328012703
 C          5.5695528197        4.6849640010       -0.6645263055
 C          6.5040331261        5.6945561857       -0.7384342767
 C          7.8540238646        5.3744117598       -0.6696407295
 C          8.2653081353        4.0616959076       -0.5474992179
 C          7.3454871076        3.0078193247       -0.4875922119
 C          7.7441013341        1.6109322808       -0.4078592678
 C          9.0832994327        1.2308796489       -0.4980995824
 C          9.4785469277       -0.0911399338       -0.4749122334
 C          8.5221935517       -1.1015227577       -0.3820503973
 C          7.1956728525       -0.7771748075       -0.2818332282
 C          6.7656210315        0.5696452637       -0.2697248838
 C          5.4162076297        0.9545546001       -0.1853602572
 N          4.2445600236        0.2538944264       -0.0476518019
 C          4.0638340078       -1.1198466479        0.1287093222
 C          4.6210166401       -1.7783420176        1.2281458887
 C          4.4101150844       -3.1275858925        1.4036466356
 C          3.6356266114       -3.8601309193        0.4979065415
 C          3.4094459205       -5.2905059459        0.6929329764
 C          4.4045265189       -6.1335581055        1.1939318450
 C          4.1377070718       -7.4804220205        1.3527032140
 C          2.8807456494       -7.9521681660        1.0017149659
 N          1.9238211614       -7.1664448911        0.5352933591
 C          2.1787636783       -5.8829481232        0.3894686278
 C          3.0796141902       -3.1902686314       -0.5960231661
 C          3.2891016073       -1.8427954178       -0.7834013079
 C          0.9310265772        1.9719900854       -0.5322070248
 C         -0.4171133662        1.8036842543       -0.4974229780
 C         -3.3831860242        1.4150382337        0.2153211102
 C         -2.9574184321        2.7712284335        0.6018324581
 C         -2.1408092334        2.9513022864        1.7168421398
 C         -1.7502947956        4.2190220830        2.1028154768
 C         -2.1654113561        5.3254777036        1.3804972149
 C         -2.9733667536        5.1562904782        0.2682223672
 C         -3.3700304246        3.8903679816       -0.1180008868
 C         -4.7420127771        1.1239081755        0.0974778868
 C         -5.7454709655        2.1921201651        0.2988905616
 C         -5.8226951590        2.8685465484        1.5118928458
 C         -6.7677820066        3.8592910969        1.7015974113
 C         -7.6452187242        4.1883347578        0.6823212745
 C         -7.5739059213        3.5205437955       -0.5284918989
 C         -6.6318343518        2.5272187694       -0.7194454613
 C         -5.1779456700       -0.1738195619       -0.2022717879
 C         -6.6115023063       -0.4629693400       -0.3677283317
 C         -7.5306381414       -0.1532439110        0.6319975078
 C         -8.8731721493       -0.4307069374        0.4595830789
 C         -9.3197165147       -1.0168298666       -0.7131752347
 C         -8.4132718666       -1.3294774264       -1.7126364793
 C         -7.0695551046       -1.0584744597       -1.5413388958
 C         -5.5939085983       -3.2267900008        0.1536337651
 C         -5.9526647221       -4.5359850278       -0.1055014242
 H         -5.6450025907       -6.2509767486       -1.3512578917
 H         -3.9255839626       -5.1467166208       -2.7347495752
 H         -3.2870999331       -2.8143097457       -2.2779899855
 H         -2.1654606530       -1.7013157704       -0.3642486544
 H         -0.5405337774       -1.1910367965        1.0980941756
 H          1.8527710591       -0.8879778722        1.0878320849
 H          4.5104613214        4.8877624688       -0.6974956853
 H          6.1934584582        6.7234087316       -0.8401281175
 H          8.5950002233        6.1595877161       -0.7123289497
 H          9.3243703019        3.8663443586       -0.4934915967
 H          9.8478639831        1.9833235592       -0.6059222992
 H         10.5261239579       -0.3419491346       -0.5464275043
 H          8.8265353293       -2.1376052301       -0.3954301608
 H          6.4606951619       -1.5639299695       -0.2379064407
 H          5.2045834356       -1.2157442082        1.9425878884
 H          4.8215809206       -3.6187828481        2.2729429485
 H          5.3819083575       -5.7374638192        1.4305850858
 H          4.8913332313       -8.1540234401        1.7311854347
 H          2.6245941301       -8.9988346146        1.0957786532
 H          1.3526079672       -5.2834681609        0.0288430828
 H          2.5010119500       -3.7436291270       -1.3201502141
 H          2.8646632441       -1.3331430717       -1.6354001473
 H          1.3719097151        2.8496672571       -0.9762751461
 H         -1.0571010442        2.5514451244       -0.9390158774
 H         -1.8240672860        2.0893043641        2.2866180380
 H         -1.1198333396        4.3449882692        2.9708826465
 H         -1.8592960451        6.3161936261        1.6823417460
 H         -3.2959910449        6.0151829015       -0.3020735320
 H         -3.9886250084        3.7622222104       -0.9942398006
 H         -5.1433578495        2.6080409165        2.3110276252
 H         -6.8202382493        4.3755650997        2.6491481983
 H         -8.3831943189        4.9628237332        0.8313276910
 H         -8.2556300758        3.7738770772       -1.3273758500
 H         -6.5737117750        2.0106099377       -1.6668843276
 H         -7.1858012281        0.2924030523        1.5537475278
 H         -9.5747063322       -0.1891718264        1.2449091267
 H        -10.3698860438       -1.2307669084       -0.8470007520
 H         -8.7551410809       -1.7863195429       -2.6300833754
 H         -6.3656199912       -1.2953189525       -2.3263257086
 H         -6.0513065833       -2.6947608038        0.9746966411
 H         -6.7000380278       -5.0173642185        0.5081193155
