  50
  -80.9058322100000       0.108448073139832      !
 C          3.9607038224       -3.5350518823       -0.1284923582
 C          2.6806593327       -3.4236748128        0.4041036842
 C          2.0753746149       -2.1918960564        0.5770941541
 C          2.7725154536       -1.0582314171        0.1894806157
 C          4.0928360526       -1.1633269856       -0.3014150854
 C          4.6824282209       -2.4078698569       -0.4700663155
 C          4.5705461260        0.1795675773       -0.4925865330
 C          5.7723319961        0.6994600303       -0.9531535966
 C          5.9173937480        2.0714864774       -1.0125988910
 C          4.8814279299        2.9158408231       -0.6235372770
 C          3.6758072127        2.4186827859       -0.1627174099
 C          3.5287054195        1.0431347714       -0.0955075548
 N          2.4248146947        0.2836498725        0.2855728227
 C          1.1870312193        0.7995112054        0.6123180734
 C          0.0020799601        0.1571057670        0.2508269392
 C         -1.1883766817        0.7898605728        0.6124738935
 N         -2.4237092265        0.2704163384        0.2844953802
 C         -3.5379057894        1.0310293081       -0.0669967209
 C         -3.6999010554        2.4064194433       -0.0929472131
 C         -4.9139104688        2.9046098894       -0.5303085398
 C         -5.9446641885        2.0620590209       -0.9363012546
 C         -5.7852740566        0.6905003426       -0.9179230834
 C         -4.5747785265        0.1700061098       -0.4815830308
 C         -4.0836106196       -1.1734776855       -0.3345927406
 C         -4.6648505713       -2.4164585932       -0.5391000484
 C         -3.9318618454       -3.5483129904       -0.2398751989
 C         -2.6489831595       -3.4429417646        0.2865237074
 C         -2.0525797490       -2.2123335074        0.4958662899
 C         -2.7608076562       -1.0718403347        0.1503095213
 N         -1.1808126644        1.9654680273        1.2498430240
 C         -0.0056539628        2.4900168766        1.5185025124
 N          1.1737552183        1.9763682666        1.2464050958
 H          4.3989131028       -4.5135862482       -0.2536643602
 H          2.1490155143       -4.3162847668        0.6984729038
 H          1.1015766891       -2.1285617129        1.0346911246
 H          5.6894280675       -2.4872168712       -0.8499914364
 H          6.5717189592        0.0413220185       -1.2579880951
 H          6.8447354705        2.4980576463       -1.3645682155
 H          5.0222959470        3.9849466508       -0.6795141799
 H          2.8800408548        3.0750477578        0.1475882520
 H          0.0078828990       -0.7307131471       -0.3559163747
 H         -2.9085014739        3.0620432573        0.2294927615
 H         -5.0650394431        3.9734631889       -0.5546155166
 H         -6.8788870524        2.4893174152       -1.2687508999
 H         -6.5803365760        0.0331130348       -1.2354952313
 H         -5.6743588927       -2.4911742836       -0.9132504809
 H         -4.3629775353       -4.5259022574       -0.3938646484
 H         -2.1068996522       -4.3398839069        0.5467635719
 H         -1.0760704146       -2.1589362410        0.9481043338
 H         -0.0094583988        3.4477764451        2.0229915206
  50
  -80.9058178100000       0.106808067721067      !
 C          5.9292620729       -2.2689172409        0.3086660126
 C          4.8814641193       -2.7750022029        1.0726070208
 C          3.6712612240       -2.1127619626        1.1717712459
 C          3.5310565519       -0.9181709291        0.4848879483
 C          4.5843431408       -0.4014430094       -0.2974376227
 C          5.7910677297       -1.0819507811       -0.3833433372
 C          4.1101726216        0.8285359726       -0.8720324318
 C          4.7103505364        1.7857591871       -1.6771109374
 C          3.9884083360        2.9133302292       -2.0166893297
 C          2.6965445586        3.0996583832       -1.5364126661
 C          2.0808830869        2.1557967180       -0.7339780611
 C          2.7802039213        0.9989219581       -0.4271346330
 N          2.4247302593       -0.0780956511        0.3760115831
 C          1.1860560664       -0.3344316887        0.9278830890
 C         -0.0008287399        0.0069014833        0.2776031472
 C         -1.1887820939       -0.3379902398        0.9242208672
 N         -2.4265889319       -0.0865941315        0.3683799342
 C         -2.7819558830        0.9845179104       -0.4428223957
 C         -2.0859020772        2.1427388542       -0.7522796953
 C         -2.7007236047        3.0789980440       -1.5643017256
 C         -3.9888357736        2.8841393549       -2.0513929888
 C         -4.7081144536        1.7557539993       -1.7088253663
 C         -4.1086920798        0.8061051461       -0.8942737806
 C         -4.5813887305       -0.4221176170       -0.3147142653
 C         -5.7852076067       -1.1075183420       -0.4031290030
 C         -5.9231582964       -2.2904673688        0.2958157423
 C         -4.8778551276       -2.7878070181        1.0688807752
 C         -3.6705229850       -2.1206310904        1.1704563098
 C         -3.5305299137       -0.9300765462        0.4765400095
 N         -1.1789288871       -0.9827458000        2.0954782872
 C         -0.0023357983       -1.2707289869        2.6063248448
 N          1.1749459409       -0.9800782790        2.0986014965
 H          6.8599892632       -2.8139381547        0.2587120302
 H          5.0160386198       -3.7058914566        1.6028878089
 H          2.8667597151       -2.5025537866        1.7728349318
 H          6.5994990274       -0.6881355470       -0.9802005754
 H          5.7254061631        1.6523476421       -2.0182219429
 H          4.4346266223        3.6697164122       -2.6444789233
 H          2.1630158230        4.0045277340       -1.7866890094
 H          1.0962485060        2.3448792421       -0.3386456805
 H          0.0002907806        0.4286169352       -0.7117085672
 H         -1.1043439339        2.3382950622       -0.3530486904
 H         -2.1694433689        3.9843980851       -1.8171437513
 H         -4.4345299468        3.6348764328       -2.6861645697
 H         -5.7205739933        1.6160454898       -2.0548100288
 H         -6.5915714987       -0.7205386544       -1.0072805916
 H         -6.8516116522       -2.8391333444        0.2440938697
 H         -5.0119566122       -3.7160177116        1.6039808564
 H         -2.8680125991       -2.5039310122        1.7780418271
 H         -0.0030198036       -1.8012224217        3.5499611461
  50
  -80.9058175900000       0.106783205390555      !
 C          5.9517993515        2.0719996491       -0.8944711593
 C          4.9156457523        2.9129823641       -0.4989386856
 C          3.6975436889        2.4127177668       -0.0755400101
 C          3.5376405757        1.0371285640       -0.0526686248
 C          4.5792989664        0.1774554180       -0.4582904092
 C          5.7938238905        0.7002035202       -0.8805422338
 C          4.0876774476       -1.1665292697       -0.3178050515
 C          4.6704367589       -2.4095953355       -0.5177465423
 C          3.9344787839       -3.5415351888       -0.2260260423
 C          2.6471799947       -3.4367169112        0.2898403831
 C          2.0494066266       -2.2061989645        0.4946132377
 C          2.7604840445       -1.0658357695        0.1550178558
 N          2.4213724979        0.2755396382        0.2872109444
 C          1.1847213082        0.7908635583        0.6186058085
 C         -0.0026396629        0.1634413345        0.2390705288
 C         -1.1912836859        0.7887833822        0.6198688461
 N         -2.4273262097        0.2749150604        0.2858167587
 C         -3.5453202492        1.0390278855       -0.0450217191
 C         -3.7172600330        2.4132394550       -0.0254410860
 C         -4.9349049540        2.9167052927       -0.4464447579
 C         -5.9590561618        2.0806744716       -0.8813126279
 C         -5.7894972307        0.7104488501       -0.9089372109
 C         -4.5757844191        0.1846331850       -0.4885348818
 C         -4.0771258817       -1.1598449695       -0.3807709624
 C         -4.6493559910       -2.3999304868       -0.6249037972
 C         -3.9117681040       -3.5356195627       -0.3525963837
 C         -2.6345570762       -3.4380474316        0.1887389382
 C         -2.0469153880       -2.2103189173        0.4360181717
 C         -2.7576850950       -1.0647400539        0.1138905576
 N         -1.1806049535        1.9497661897        1.2831526651
 C         -0.0034241129        2.4654635593        1.5608451190
 N          1.1742574319        1.9531013153        1.2796244172
 H          6.8892819087        2.5008423647       -1.2155424887
 H          5.0661131904        3.9819742588       -0.5202463709
 H          2.9020038606        3.0665230822        0.2406689185
 H          6.5930245439        0.0444048798       -1.1907084382
 H          5.6830556230       -2.4844330131       -0.8832546466
 H          4.3665411236       -4.5190627428       -0.3774143583
 H          2.1033651301       -4.3336765434        0.5461287416
 H          1.0695525334       -2.1512231093        0.9393928275
 H         -0.0013410741       -0.7079813611       -0.3910303769
 H         -2.9313829680        3.0630379202        0.3211972873
 H         -5.0944299341        3.9845584880       -0.4341127102
 H         -6.8964716570        2.5117533162       -1.1990309967
 H         -6.5795447438        0.0579791081       -1.2483179243
 H         -5.6553590971       -2.4700434247       -1.0084269916
 H         -4.3352604194       -4.5108558642       -0.5389099229
 H         -2.0901650180       -4.3388060159        0.4305356014
 H         -1.0757442152       -2.1628806809        0.8998432984
 H         -0.0038687683        3.4126059880        2.0849458017
  50
  -80.9058088500000       0.105800160702499      !
 C          3.9596636992       -3.5217327153        0.3798354598
 C          2.6614114882       -3.3474247997        0.8469241948
 C          2.0537834578       -2.1044129467        0.8466911854
 C          2.7670781220       -1.0244274966        0.3500033671
 C          4.1043793415       -1.1884855668       -0.0745488412
 C          4.6965464327       -2.4430225526       -0.0687948947
 C          4.5955939825        0.1205092021       -0.4105648813
 C          5.8185550811        0.5773473947       -0.8820228123
 C          5.9757342238        1.9314376870       -1.1027359899
 C          4.9300978480        2.8182018264       -0.8626900760
 C          3.7032979952        2.3832958926       -0.3942379333
 C          3.5436229043        1.0266611751       -0.1642019842
 N          2.4211279692        0.3198733997        0.2659644425
 C          1.1768931989        0.8759610107        0.4797699045
 C         -0.0046578165        0.1872957796        0.1982964470
 C         -1.1978881387        0.8729825836        0.4289771773
 N         -2.4293779717        0.3060206878        0.1688003234
 C         -2.7832409833       -1.0302696892        0.3085426648
 C         -2.0903881287       -2.0831595925        0.8854642351
 C         -2.7030008928       -3.3225537758        0.9324469727
 C         -3.9859403815       -3.5177512331        0.4317990246
 C         -4.7020270817       -2.4638750147       -0.1017971513
 C         -4.1047965402       -1.2127673543       -0.1560380836
 C         -4.5754670447        0.0777768945       -0.5811180521
 C         -5.7742651847        0.5146404069       -1.1276408837
 C         -5.9111842215        1.8551226237       -1.4301353740
 C         -4.8697771040        2.7488658502       -1.1972796348
 C         -3.6674080277        2.3344568857       -0.6538698793
 C         -3.5288787295        0.9920728140       -0.3418597219
 N         -1.2004963400        2.1363828503        0.8662199265
 C         -0.0284949958        2.6930892994        1.0777741452
 N          1.1528406094        2.1377942767        0.9219732651
 H          4.3989261419       -4.5076428799        0.3901096514
 H          2.1155678591       -4.1981355811        1.2269416135
 H          1.0635751699       -1.9912001738        1.2566618464
 H          5.7166198488       -2.5655697784       -0.3985573982
 H          6.6249036780       -0.1149350367       -1.0704687038
 H          6.9196262556        2.3101419554       -1.4651279719
 H          5.0795651795        3.8722764220       -1.0433179987
 H          2.9005816619        3.0751420387       -0.1999873621
 H          0.0034335100       -0.7860758168       -0.2588377466
 H         -1.1140692891       -1.9472274252        1.3208066390
 H         -2.1747793040       -4.1533020267        1.3761858632
 H         -4.4304418192       -4.5001472589        0.4823630766
 H         -5.7104913805       -2.6023416512       -0.4596157415
 H         -6.5776490715       -0.1824164187       -1.3112091933
 H         -6.8360683444        2.2179928379       -1.8531693043
 H         -5.0033215334        3.7913492593       -1.4447477478
 H         -2.8679186930        3.0312114386       -0.4650253936
 H         -0.0371142856        3.7193118739        1.4222147015
  50
  -80.9057171000000       9.601098976634416E-002 !
 C          5.8846078522        1.7538488801       -1.5958046859
 C          4.8534345054        2.6677311837       -1.3968517423
 C          3.6604880513        2.2955394573       -0.8042486248
 C          3.5224633593        0.9757292053       -0.4080551616
 C          4.5589537582        0.0407041713       -0.6101005284
 C          5.7480611882        0.4355957249       -1.2075346863
 C          4.0888416220       -1.2175984327       -0.0962654330
 C          4.6764349903       -2.4685454286        0.0269802751
 C          3.9616134491       -3.4794367081        0.6396101270
 C          2.6901991022       -3.2416385934        1.1514536479
 C          2.0871664191       -2.0022392225        1.0369871747
 C          2.7776420333       -0.9960359695        0.3797848710
 N          2.4297937305        0.3307005406        0.1633043581
 C          1.2002626228        0.9112810529        0.4046552362
 C          0.0103717140        0.2127235024        0.2002803255
 C         -1.1744274541        0.9002720965        0.4710884348
 N         -2.4157106197        0.3311384862        0.2793237356
 C         -3.5508744204        1.0247128276       -0.1418330803
 C         -3.7358349708        2.3812576335       -0.3524361945
 C         -4.9710854244        2.8006229297       -0.8130939596
 C         -6.0013006610        1.8992507850       -1.0637831049
 C         -5.8194524358        0.5453686491       -0.8616181649
 C         -4.5877614099        0.1043366564       -0.3983144911
 C         -4.0750236066       -1.2005299529       -0.0791156588
 C         -4.6470997706       -2.4642336112       -0.0935691298
 C         -3.8939737183       -3.5378016056        0.3401792701
 C         -2.6008485491       -3.3485399625        0.8150101233
 C         -2.0137220326       -2.0958486597        0.8349699918
 C         -2.7412250360       -1.0201190504        0.3493621465
 N         -1.1522090945        2.1739211325        0.8794696088
 C          0.0265213920        2.7428057524        1.0031951344
 N          1.2013424634        2.1888472326        0.7971024266
 H          6.8019947117        2.0836833915       -2.0599373862
 H          4.9879296339        3.6918815262       -1.7113376145
 H          2.8675279696        3.0066783860       -0.6420612991
 H          6.5442294364       -0.2762986314       -1.3641647327
 H          5.6771563784       -2.6395153626       -0.3388742366
 H          4.3988710514       -4.4609711896        0.7438278063
 H          2.1646186788       -4.0375158088        1.6579211861
 H          1.1213851231       -1.8257327714        1.4823451166
 H          0.0101499497       -0.7730145039       -0.2294186283
 H         -2.9454463029        3.0841874233       -0.1504860063
 H         -5.1395321657        3.8543066104       -0.9779479605
 H         -6.9526310674        2.2660331254       -1.4190458347
 H         -6.6136422683       -0.1588734706       -1.0575222221
 H         -5.6643063169       -2.5980102454       -0.4284050759
 H         -4.3164756397       -4.5310688885        0.3328671806
 H         -2.0415848870       -4.1951641324        1.1840967199
 H         -1.0277476275       -1.9754710360        1.2515902756
 H          0.0303335615        3.7791962401        1.3158632862
  50
  -80.9057101400000       9.530646297757341E-002 !
 C          5.9882473149       -2.1463506299        0.5232344845
 C          4.9499348161       -2.6275993690        1.3150784482
 C          3.7178820314       -1.9997820608        1.3565843110
 C          3.5440823787       -0.8644947023        0.5820982705
 C          4.5879429936       -0.3759299895       -0.2298928159
 C          5.8168437758       -1.0204696185       -0.2575451887
 C          4.0840798913        0.7938632941       -0.8969490208
 C          4.6652632981        1.6978676808       -1.7740109873
 C          3.9190196905        2.7777087060       -2.2038624277
 C          2.6232490518        2.9714789486       -1.7383132841
 C          2.0271780415        2.0796714110       -0.8642037325
 C          2.7485157618        0.9634712619       -0.4692084794
 N          2.4142688726       -0.0643119212        0.4076769834
 C          1.1744147435       -0.3308668079        0.9488581371
 C         -0.0137136454       -0.0079155736        0.2903522627
 C         -1.2005897278       -0.3652577502        0.9300291286
 N         -2.4330785462       -0.1057298416        0.3634027669
 C         -2.7825499582        1.0059276349       -0.3912254778
 C         -2.0933873884        2.1894730963       -0.6045562671
 C         -2.6987991527        3.1686276060       -1.3711324004
 C         -3.9703323245        2.9881539923       -1.9058514210
 C         -4.6832689400        1.8312308294       -1.6577102165
 C         -4.0937752147        0.8378166047       -0.8889755725
 C         -4.5616292787       -0.4304323967       -0.3977297563
 C         -5.7485787064       -1.1313033498       -0.5614381530
 C         -5.8825853399       -2.3557024810        0.0629739236
 C         -4.8516430135       -2.8792696864        0.8382454952
 C         -3.6605589427       -2.1986927249        1.0136526423
 C         -3.5245252052       -0.9684118690        0.3925466074
 N         -1.1971314151       -1.0196354457        2.0951095717
 C         -0.0197589529       -1.2871060792        2.6165927219
 N          1.1568957919       -0.9710994014        2.1233334532
 H          6.9370355593       -2.6616332747        0.5215335045
 H          5.1093600878       -3.5106693079        1.9156483058
 H          2.9219752384       -2.3704757840        1.9800521122
 H          6.6167699591       -0.6454169775       -0.8773669320
 H          5.6839049710        1.5600613253       -2.1024678030
 H          4.3482957996        3.4907529755       -2.8911164260
 H          2.0683642565        3.8403465891       -2.0593862524
 H          1.0381142144        2.2821994749       -0.4886056499
 H         -0.0202896990        0.4113363894       -0.6997991352
 H         -1.1267271663        2.3671787142       -0.1610996394
 H         -2.1753721881        4.0962131234       -1.5488395175
 H         -4.4096385960        3.7733875708       -2.5020662337
 H         -5.6839285184        1.7027913425       -2.0411883666
 H         -6.5450010354       -0.7246444564       -1.1660439963
 H         -6.7976558662       -2.9175145100       -0.0498148433
 H         -4.9843483735       -3.8393223695        1.3142452495
 H         -2.8673612931       -2.6009769066        1.6219594393
 H         -0.0193652992       -1.8209076688        3.5583237116
  50
  -80.9056817900000       9.248974761625492E-002 !
 C          3.9849162902       -3.5338244459        0.0909777294
 C          2.6952153980       -3.3991213195        0.5946556147
 C          2.0818975562       -2.1627030565        0.6852475124
 C          2.7815181559       -1.0505962634        0.2438405570
 C          4.1095066798       -1.1757408787       -0.2209534752
 C          4.7071005967       -2.4251485541       -0.3057281845
 C          4.5816559322        0.1569887928       -0.4839330212
 C          5.7849301112        0.6595000758       -0.9598360885
 C          5.9188245290        2.0267749742       -1.1000250083
 C          4.8711142386        2.8842448966       -0.7756977240
 C          3.6642278554        2.4049981435       -0.2998952862
 C          3.5289110187        1.0347296401       -0.1512008510
 N          2.4262017440        0.2915689477        0.2587551585
 C          1.1881788593        0.8155354995        0.5753970640
 C          0.0061033744        0.1672088045        0.2175390325
 C         -1.1874071182        0.7899628143        0.5893059957
 N         -2.4235465352        0.2686854572        0.2709499720
 C         -3.5569103222        1.0321795548       -0.0136349254
 C         -3.7427625080        2.4037598255        0.0442085825
 C         -4.9764264229        2.9050816533       -0.3307805432
 C         -6.0047122107        2.0704020110       -0.7577566652
 C         -5.8216517839        0.7033720130       -0.8252245815
 C         -4.5914163916        0.1805240705       -0.4519841408
 C         -4.0793718021       -1.1616759581       -0.3930876543
 C         -4.6510491752       -2.3967505555       -0.6615698393
 C         -3.9006349813       -3.5357710583       -0.4442845787
 C         -2.6110328893       -3.4451619947        0.0674612182
 C         -2.0245375458       -2.2218033892        0.3394614047
 C         -2.7485774823       -1.0701269326        0.0716241466
 N         -1.1783140303        1.9636275227        1.2312156080
 C         -0.0054118111        2.5011637380        1.4824587815
 N          1.1757456293        1.9969015087        1.2000286983
 H          4.4301033467       -4.5154626124        0.0321231517
 H          2.1632653541       -4.2761374809        0.9322344295
 H          1.1003050344       -2.0748824064        1.1224042655
 H          5.7208387390       -2.5217694919       -0.6630237865
 H          6.5939419296       -0.0081323258       -1.2145249850
 H          6.8469409392        2.4397820844       -1.4659777600
 H          5.0036353911        3.9490124003       -0.8968066471
 H          2.8584895005        3.0712612878       -0.0396570481
 H          0.0205202482       -0.7192564734       -0.3907936210
 H         -2.9547741268        3.0541292011        0.3839470583
 H         -5.1450270551        3.9706482812       -0.2868068650
 H         -6.9551313663        2.4994602893       -1.0377215834
 H         -6.6140775023        0.0509188646       -1.1589852972
 H         -5.6657453108       -2.4601821695       -1.0234852699
 H         -4.3224860790       -4.5075211518       -0.6514568137
 H         -2.0539107117       -4.3486346890        0.2657209505
 H         -1.0413934400       -2.1887334910        0.7780015872
 H         -0.0128946175        3.4608793401        1.9831725437
  50
  -80.9055978500000       8.462865550423300E-002 !
 C          3.8493754565       -2.4664328062       -2.6039950628
 C          2.5955691211       -2.7217872463       -2.0591091132
 C          2.0276525142       -1.8784128283       -1.1203470539
 C          2.7379934240       -0.7489066163       -0.7412386924
 C          4.0332571784       -0.5134937209       -1.2542510134
 C          4.5843845194       -1.3707460355       -2.1955138114
 C          4.5376031190        0.6565612014       -0.5873578310
 C          5.7307905999        1.3593280262       -0.6825122346
 C          5.9076779721        2.4693054512        0.1199257017
 C          4.9112434857        2.8782424161        1.0016492679
 C          3.7148628576        2.1928614619        1.1114675381
 C          3.5369023777        1.0747118204        0.3136332388
 N          2.4315687913        0.2359170367        0.1915529114
 C          1.2296551470        0.4172839602        0.8440534489
 C          0.0113477638        0.0964810563        0.2457368194
 C         -1.1379144221        0.3153667570        1.0052068936
 N         -2.3979063358        0.0455229573        0.5127388263
 C         -2.8145954758        0.1314402731       -0.8112584719
 C         -2.1775064954        0.6706879715       -1.9191224993
 C         -2.8500035959        0.6584782103       -3.1286206564
 C         -4.1348553659        0.1384403937       -3.2423893164
 C         -4.7953413599       -0.3548157265       -2.1341174765
 C         -4.1393040030       -0.3496506635       -0.9118136199
 C         -4.5463675955       -0.7249651106        0.4155022169
 C         -5.7194898899       -1.2603542195        0.9292290799
 C         -5.7919973758       -1.5081842374        2.2858587655
 C         -4.7125908969       -1.2318307759        3.1201733146
 C         -3.5343000517       -0.6995348646        2.6286587053
 C         -3.4604551524       -0.4429961016        1.2695281849
 N         -1.0625153516        0.7780979601        2.2575360564
 C          0.1369174895        1.0728875677        2.7087988264
 N          1.2807973378        0.9385001609        2.0744875709
 H          4.2562972311       -3.1450908179       -3.3382077028
 H          2.0520695295       -3.6019850469       -2.3689800872
 H          1.0729139036       -2.1270177011       -0.6845782248
 H          5.5717066509       -1.1853481097       -2.5895100887
 H          6.4991923085        1.0417542735       -1.3708336600
 H          6.8291389346        3.0294837607        0.0650302222
 H          5.0758514938        3.7503384099        1.6167051345
 H          2.9501353141        2.5058936141        1.8024084355
 H         -0.0394401653       -0.2991375436       -0.7516800452
 H         -1.1999707482        1.1214682705       -1.8537325273
 H         -2.3656331639        1.0709113035       -4.0011242724
 H         -4.6246326821        0.1411799635       -4.2043674218
 H         -5.8055206504       -0.7270729584       -2.2093583001
 H         -6.5528011198       -1.4767355185        0.2781163827
 H         -6.6960067656       -1.9209704857        2.7082267635
 H         -4.7967789151       -1.4355352897        4.1772464757
 H         -2.7044212287       -0.4775292751        3.2784949242
 H          0.1880477518        1.4708363855        3.7140749335
  50
  -80.9055893400000       8.386997548533884E-002 !
 C          3.7588648718       -3.0241518321       -2.0607142199
 C          2.4421882642       -2.6466991863       -2.3018439090
 C          1.8916095127       -1.5218204477       -1.7132929205
 C          2.6871792407       -0.7775491660       -0.8546547365
 C          4.0401889396       -1.1279202889       -0.6480577106
 C          4.5722695899       -2.2613281481       -1.2456478250
 C          4.6105333883       -0.1053262404        0.1870571841
 C          5.8780618235        0.0835552066        0.7203187804
 C          6.1055135194        1.2010231385        1.4992119434
 C          5.0869188286        2.1163362104        1.7490529983
 C          3.8167695667        1.9468148418        1.2283633460
 C          3.5872376485        0.8311964531        0.4403290337
 N          2.4111483017        0.3992701816       -0.1674824072
 C          1.1817701118        1.0107501543       -0.0326990895
 C         -0.0016270071        0.2747261592        0.0173556400
 C         -1.1866076157        0.9991076532        0.1457088694
 N         -2.4144932378        0.3750169277        0.2192701259
 C         -3.5934624878        0.8674299731       -0.3357382255
 C         -3.8311658935        2.0668170256       -0.9863266316
 C         -5.1018760339        2.2867164774       -1.4866573766
 C         -6.1133543558        1.3403244553       -1.3498379663
 C         -5.8783338119        0.1409418058       -0.7068524302
 C         -4.6102142997       -0.0995317009       -0.1962341444
 C         -4.0334892370       -1.2094170756        0.5137753693
 C         -4.5582170067       -2.4093287486        0.9715301952
 C         -3.7404927382       -3.2575271445        1.6922995310
 C         -2.4275332331       -2.9010477398        1.9809242746
 C         -1.8845996789       -1.7101537381        1.5317390371
 C         -2.6834904957       -0.8761123921        0.7634676677
 N         -1.1803246698        2.3358846903        0.1804535948
 C         -0.0040046308        2.9233085676        0.1547036999
 N          1.1735566155        2.3438955741        0.0706463959
 H          4.1507016847       -3.9115764122       -2.5342765822
 H          1.8348897426       -3.2385052113       -2.9703842817
 H          0.8811726055       -1.2302240764       -1.9531552199
 H          5.6046804368       -2.5299387326       -1.0827219272
 H          6.6642251775       -0.6307674444        0.5284223060
 H          7.0847492832        1.3697776309        1.9218028790
 H          5.2928753870        2.9811104163        2.3619681263
 H          3.0330344718        2.6618950994        1.4149299351
 H         -0.0001884176       -0.7980157542       -0.0403013744
 H         -3.0528319754        2.8048549425       -1.0852500747
 H         -5.3135551543        3.2159352114       -1.9941471598
 H         -7.0930300999        1.5498966220       -1.7525981237
 H         -6.6589882302       -0.5970657673       -0.6022411494
 H         -5.5885218783       -2.6639237103        0.7756641765
 H         -4.1262086092       -4.1979477954        2.0555506419
 H         -1.8166947659       -3.5635530507        2.5757866557
 H         -0.8773768469       -1.4413616314        1.8086111981
 H         -0.0051481697        4.0043332495        0.2088680366
  50
  -80.9055783900000       8.290376316870696E-002 !
 C          5.9311235367       -2.0770251179       -1.2359609858
 C          4.9007621158       -2.9465598545       -0.8892648892
 C          3.6882308927       -2.4803090272       -0.4142632313
 C          3.5291055909       -1.1100719671       -0.2897199139
 C          4.5639617499       -0.2207902138       -0.6456277722
 C          5.7732579832       -0.7099452549       -1.1200501595
 C          4.0701189567        1.1085095448       -0.4056915886
 C          4.6476180389        2.3639883311       -0.5281416536
 C          3.9113136679        3.4710044666       -0.1535991772
 C          2.6292350418        3.3273088095        0.3659369328
 C          2.0345148224        2.0844010261        0.4942638102
 C          2.7478025464        0.9717676883        0.0729214105
 N          2.4157077273       -0.3779500080        0.1150310348
 C          1.1843640617       -0.9183374791        0.4230406582
 C         -0.0040222972       -0.2572297780        0.1145798438
 C         -1.1894463042       -0.8890032965        0.4894612690
 N         -2.4224326194       -0.3274334216        0.2295279131
 C         -2.7587266608        0.4825490956       -0.8492269957
 C         -2.0575388754        0.7603297906       -2.0133589462
 C         -2.6535024607        1.5833242447       -2.9526140231
 C         -3.9251312444        2.1111270304       -2.7557463554
 C         -4.6502527347        1.7980598603       -1.6226119028
 C         -4.0715648565        0.9724372832       -0.6695750994
 C         -4.5559427827        0.4164965353        0.5654364465
 C         -5.7533204197        0.5440211423        1.2559522801
 C         -5.9042007229       -0.1408920321        2.4457677632
 C         -4.8788405799       -0.9391605608        2.9450438484
 C         -3.6777470863       -1.0796429456        2.2734346364
 C         -3.5253572712       -0.3988120751        1.0769633706
 N         -1.1763443760       -2.0573178345        1.1395729519
 C          0.0010875070       -2.6054492088        1.3471478629
 N          1.1761740851       -2.1176935655        1.0144021819
 H          6.8642800821       -2.4800794066       -1.5999434838
 H          5.0514274449       -4.0110304545       -0.9909891080
 H          2.8960893879       -3.1556955696       -0.1371913777
 H          6.5683534144       -0.0324102468       -1.3924541602
 H          5.6558846138        2.4665563438       -0.8992664160
 H          4.3388672349        4.4579970890       -0.2433942725
 H          2.0849534273        4.2036739770        0.6850053304
 H          1.0561869708        2.0011181751        0.9410207721
 H         -0.0066484950        0.6932801034       -0.3860650898
 H         -1.0876972872        0.3320701886       -2.2121112160
 H         -2.1188953841        1.8132732392       -3.8621915293
 H         -4.3542736926        2.7536728814       -3.5093085961
 H         -5.6516137427        2.1750703802       -1.4817108762
 H         -6.5447643087        1.1671414545        0.8679990132
 H         -6.8280135344       -0.0581690732        2.9986181032
 H         -5.0242528069       -1.4631958724        3.8780173993
 H         -2.8895107908       -1.7060782239        2.6563363227
 H          0.0031978076       -3.5645789739        1.8487017164
  50
  -80.9048147400000       3.695089852759575E-002 !
 C          3.6885944663       -2.2315003304       -2.8943368578
 C          2.4446097869       -2.5070967382       -2.3382112757
 C          1.9330276467       -1.7564758274       -1.2936588187
 C          2.6847963639       -0.6907208279       -0.8190849068
 C          3.9777768555       -0.4536599985       -1.3373419980
 C          4.4744652791       -1.2172792549       -2.3833252887
 C          4.5491719208        0.6117420559       -0.5594016392
 C          5.7817256951        1.2483580503       -0.5990261628
 C          6.0369018641        2.2480268520        0.3187726121
 C          5.0761962751        2.6128082390        1.2568890653
 C          3.8405691391        1.9927873171        1.3104000280
 C          3.5829902423        0.9826401712        0.3977379387
 N          2.4324193546        0.2135232413        0.2107798678
 C          1.2302451389        0.4405723937        0.8471045547
 C          0.0056103374        0.1412942503        0.2499596785
 C         -1.1462988743        0.4219489938        0.9852617956
 N         -2.4078068821        0.1392425872        0.5046207797
 C         -2.7867585869       -0.0085796461       -0.8276968985
 C         -2.1375793406        0.3598991429       -1.9976248670
 C         -2.7641428013        0.1008005770       -3.2043214619
 C         -4.0215661894       -0.4897519397       -3.2611462213
 C         -4.7055183946       -0.7954750089       -2.1008846098
 C         -4.0935065026       -0.5431192573       -0.8819814425
 C         -4.5406383390       -0.6864371566        0.4770573244
 C         -5.7277629254       -1.1403833518        1.0345245727
 C         -5.8543462879       -1.1357963922        2.4096536955
 C         -4.8122336976       -0.6917300175        3.2177883689
 C         -3.6197558771       -0.2390362853        2.6818683483
 C         -3.4908357458       -0.2346447397        1.3024918398
 N         -1.0680154964        0.9491674618        2.2123116741
 C          0.1366550054        1.2089858371        2.6696833094
 N          1.2831661747        0.9939192043        2.0643499592
 H          4.0496749274       -2.8340331660       -3.7139685765
 H          1.8629718229       -3.3320945613       -2.7217882814
 H          0.9890335970       -2.0371835558       -0.8551886912
 H          5.4604322580       -1.0249061414       -2.7773986352
 H          6.5211635108        0.9623284464       -1.3314334530
 H          6.9912897260        2.7529581739        0.3118775996
 H          5.3001737765        3.3971304559        1.9645096010
 H          3.1050195891        2.2735197162        2.0445680951
 H         -0.0492309853       -0.2876292909       -0.7308378344
 H         -1.1866077864        0.8681603384       -1.9924516875
 H         -2.2642161966        0.3737181199       -4.1217040851
 H         -4.4735377287       -0.6852352047       -4.2216873870
 H         -5.6996571915       -1.2140497498       -2.1349552658
 H         -6.5317101714       -1.4852627186        0.4022375933
 H         -6.7711525849       -1.4782678737        2.8657604461
 H         -4.9368470472       -0.6966048657        4.2903628385
 H         -2.8196874497        0.1113824964        3.3112979927
 H          0.1907345308        1.6482851316        3.6576583708
