  75
       -117.26656841
 O         -0.0967943845        3.2017507309       -1.8966296457
 P         -0.1122821256        2.4406383932       -0.6413428215
 C         -0.1941333619        3.5040936411        0.8404217059
 C         -0.8415050805        3.1402234847        2.0126287043
 C         -0.8327968425        4.0007488677        3.0963138633
 C         -0.1784760837        5.2192345131        3.0129414367
 C          0.4644114859        5.5851039587        1.8412376609
 C          0.4549896311        4.7280133165        0.7561662230
 C          1.3741358506        1.4260463604       -0.3874732378
 C          1.7690503947        0.9809305021        0.8775664754
 C          2.8940166596        0.1995835149        1.0404646942
 C          3.6257904194       -0.1357056359       -0.0925487523
 C          3.2521951932        0.3396351005       -1.3734181555
 C          2.1159410394        1.1200509873       -1.5155153929
 C          4.2473591790       -0.1396199274       -2.2914556990
 C          4.4174419378       -0.0178646101       -3.6643286884
 C          5.5027880243       -0.6365518347       -4.2512711737
 C          6.4025721014       -1.3805768499       -3.4906406805
 C          6.2540262784       -1.5154373001       -2.1235692171
 C          5.1783564819       -0.8760074558       -1.5246391003
 N          4.7880125345       -0.8659455341       -0.1984687212
 C          5.4701672422       -1.4853051489        0.8597076657
 C          4.7899072309       -2.3299014225        1.7316865282
 C          5.4674669798       -2.9363647092        2.7732182211
 C          6.8234137115       -2.7148107082        2.9476482061
 C          7.5021163893       -1.8769491668        2.0783707103
 C          6.8312116999       -1.2582037585        1.0398753521
 C         -1.5341364901        1.3140555208       -0.4918511458
 C         -2.7040417141        1.7206320420       -1.1389092122
 C         -3.8630571538        0.9761703618       -1.0734464985
 C         -3.8352925454       -0.1976929518       -0.3303482387
 C         -2.6452752625       -0.6349753678        0.3007492937
 C         -1.4907852356        0.1286555341        0.2220095892
 C         -2.9523822012       -1.8909738747        0.9256922296
 C         -2.2131626190       -2.7820032607        1.6924544085
 C         -2.8373345891       -3.9159304097        2.1718320161
 C         -4.1837597652       -4.1584308129        1.9078305452
 C         -4.9391609664       -3.2870775846        1.1467953264
 C         -4.3110360438       -2.1577031165        0.6416246333
 N         -4.8299618078       -1.1264794094       -0.1172927047
 C         -6.1489393135       -1.0419886982       -0.5895997514
 C         -6.8975485823        0.1102671739       -0.3700931928
 C         -8.1963131971        0.1877786812       -0.8378636081
 C         -8.7599170548       -0.8805438533       -1.5155153403
 C         -8.0166316235       -2.0290312419       -1.7314411629
 C         -6.7135950681       -2.1121482494       -1.2766968332
 H         -1.3580005776        2.1919960129        2.0719853512
 H         -1.3377355535        3.7200589288        4.0100429251
 H         -0.1735692341        5.8864610141        3.8626220160
 H          0.9699935090        6.5377197839        1.7757559492
 H          0.9389879137        4.9934379328       -0.1729404665
 H          1.1903040141        1.2712609971        1.7429869190
 H          3.2047168076       -0.1260061508        2.0222219407
 H          1.8045380417        1.5046708224       -2.4753518611
 H          3.7106791012        0.5464527945       -4.2530367368
 H          5.6568058404       -0.5532394481       -5.3166977579
 H          7.2333105639       -1.8662531904       -3.9809855681
 H          6.9464867795       -2.1081819848       -1.5449509874
 H          3.7375302857       -2.5172269952        1.5783925294
 H          4.9356952513       -3.5920187381        3.4467733839
 H          7.3499914805       -3.1940345779        3.7590070662
 H          8.5584177131       -1.6978062124        2.2136150421
 H          7.3512759681       -0.5877348390        0.3721087393
 H         -2.6723484586        2.6375917101       -1.7093523119
 H         -4.7567384747        1.2903549270       -1.5912316476
 H         -0.5778341493       -0.2016142271        0.6950626455
 H         -1.1736449252       -2.5851878463        1.9079181040
 H         -2.2811354730       -4.6241156078        2.7677879040
 H         -4.6487877536       -5.0462031829        2.3103049102
 H         -5.9860629314       -3.4751711253        0.9625152725
 H         -6.4613508368        0.9326726129        0.1771022241
 H         -8.7736638572        1.0837905660       -0.6646940592
 H         -9.7758309877       -0.8179528002       -1.8750030772
 H         -8.4503975212       -2.8621632244       -2.2643074389
 H         -6.1227865871       -2.9967685331       -1.4621786734
