75
 energy: -117.154482093323 gnorm: 0.000122659275 xtb: 6.7.1 (edcfbbe)
O           -0.07019609235479        2.80147916009487       -2.58190105017495
P           -0.06205813715855        2.36455527375724       -1.17959342226954
C           -0.06207826812154        3.76010821925651       -0.00222900778345
C           -1.21327754145713        4.19528886643554        0.63464037480508
C           -1.16497984076158        5.31076254709625        1.45330423731322
C            0.02825926287591        5.99163427665399        1.62966194612544
C            1.17674678333664        5.56431633361075        0.98170252785938
C            1.13054650193434        4.45082041692063        0.16363479788307
C            1.38151695290814        1.36590544432992       -0.72674985461706
C            1.76238885289067        1.17425865993225        0.63505852003573
C            2.83605403696942        0.35602719948173        0.95311396502557
C            3.51528627847493       -0.27065690436570       -0.07424054962987
C            3.16311040369453       -0.04444330234825       -1.47695988093714
C            2.05217940617865        0.77040645274870       -1.76301154059123
C            4.09619057723301       -0.74149018749611       -2.25358205609652
C            4.26645634036548       -0.91327808977800       -3.64782370794113
C            5.28144692779639       -1.76213386128677       -4.09295756508204
C            6.10539554870112       -2.42449616313574       -3.21573636266156
C            5.95700814920218       -2.25566081923932       -1.80009948014787
C            4.98499573939940       -1.40323534794675       -1.36047676088022
N            4.61114235249510       -1.08860462860344       -0.04204146190294
C            5.25129897689432       -1.55561369030326        1.09937775608045
C            4.50710980492656       -2.05821617919092        2.17337842245679
C            5.14918128658501       -2.52205527495231        3.30161444192299
C            6.53494907954741       -2.49208032162705        3.38641519614468
C            7.27684840810265       -1.99137846288610        2.32467096222229
C            6.64808421481442       -1.52761553516014        1.18879236225553
C           -1.48228304877862        1.32037289502037       -0.74226479228304
C           -2.34419290240138        0.97416911579653       -1.78502095366839
C           -3.44307023240613        0.16656290324972       -1.57599363456413
C           -3.65579777217389       -0.31294037978849       -0.28866165870277
C           -2.79231675976935        0.04076008097631        0.77838515362766
C           -1.69547008406194        0.85494164275344        0.54815866345587
C           -3.32627258298059       -0.58150209432909        1.95802945711478
C           -2.92150269051886       -0.61761369467880        3.28571556338520
C           -3.67215063034527       -1.34924255679767        4.18522902664750
C           -4.80304691721923       -2.05028145427294        3.77309096168006
C           -5.22529247412840       -2.02942724828875        2.45641832603769
C           -4.48910724971945       -1.27698545428374        1.55339103512538
N           -4.67371621268956       -1.10419138285289        0.19464456459565
C           -5.72330038076567       -1.64374868401293       -0.56404072169706
C           -7.04158262674123       -1.47408999326099       -0.15104467191282
C           -8.07258454037583       -2.01068020724920       -0.89952983536472
C           -7.80038377773871       -2.70915005309778       -2.06432663792898
C           -6.48895095417167       -2.87440646087056       -2.47843963404288
C           -5.45027964402706       -2.34964773819264       -1.73212663285098
H           -2.14138772658930        3.65937925637150        0.48841425872766
H           -2.06041171889017        5.65077411748434        1.95344435097797
H            0.06275888578225        6.86090522766070        2.27017704744489
H            2.10500737796563        6.10079003895666        1.11501182443044
H            2.01386186358319        4.10251681111655       -0.35600130556557
H            1.23626793145077        1.70661496636337        1.41067599391678
H            3.13908287497942        0.23119800097291        1.98195539849387
H            1.74144967401832        0.95631918241903       -2.78023868065080
H            3.62429368423119       -0.39508498084040       -4.34050738036159
H            5.41760015591752       -1.90078765174295       -5.15576410842518
H            6.87834385249000       -3.08396021303078       -3.57597118058108
H            6.58898686054661       -2.81243498632105       -1.12640536877460
H            3.43221541264027       -2.11362746173917        2.09076234122400
H            4.56792667844964       -2.91947592394880        4.12048238862463
H            7.03237336413950       -2.85543140146993        4.27221309064377
H            8.35419316812473       -1.95541396098859        2.39008768337373
H            7.22158102997799       -1.10417339943475        0.37822350986215
H           -2.13284190065488        1.37438360775163       -2.76574755038635
H           -4.12072221537708       -0.07122775984005       -2.38191895664907
H           -1.03430263208174        1.13207309160585        1.35431965272652
H           -2.03633460272106       -0.08692097416491        3.60213283674067
H           -3.37674051360308       -1.38853793606150        5.22309311502043
H           -5.36068326965378       -2.62614379066900        4.49662550274490
H           -6.09222926028539       -2.59085533442872        2.14256068379327
H           -7.25014615412579       -0.90923348288417        0.74530820434967
H           -9.09387535798844       -1.87538513550676       -0.57586115902545
H           -8.60835967149519       -3.12328520849538       -2.64805427338381
H           -6.27233303768151       -3.42147425366929       -3.38385031094642
H           -4.42536778942286       -2.49478431892208       -2.03928352934760
