75
 energy: -117.266627600890 gnorm: 0.000106163007 xtb: 6.7.1 (edcfbbe)
O           -0.08166726193927        3.20307606207529       -1.88337134263609
P           -0.09984835285580        2.44650183622949       -0.62546049498775
C           -0.20064415958581        3.51620742194634        0.85003596842373
C           -0.79437336746181        3.12316512907982        2.04141841287918
C           -0.81392758471337        3.99273815754296        3.11748638361224
C           -0.24393260503526        5.25087565206132        3.00669074385925
C            0.34307382918992        5.64634656971963        1.81555791604994
C            0.36388245454828        4.77896451120486        0.73866546291405
C            1.38679622205801        1.43237113068225       -0.36868219349054
C            1.79041758266108        0.99074766381503        0.89462381866631
C            2.91381272812046        0.20546045327917        1.05133395226943
C            3.63496382202904       -0.13806951916031       -0.08595324528115
C            3.25299350354851        0.33456509342077       -1.36525233744436
C            2.11884600319540        1.11876929934857       -1.50124638418239
C            4.23892746761395       -0.15125252213577       -2.28968595033963
C            4.39762192795244       -0.03361732534861       -3.66419686835052
C            5.47651191094124       -0.65652781590165       -4.25853846701554
C            6.38035323888251       -1.40092161761953       -3.50321675817001
C            6.24233931104049       -1.53256137586844       -2.13463175030911
C            5.17340173636920       -0.88885494484411       -1.52822794698059
N            4.79354354013296       -0.87344125996382       -0.19888380549590
C            5.47502076414610       -1.49953970923784        0.85561545316276
C            4.78886861796793       -2.33371998298333        1.73316669919460
C            5.46380167050202       -2.94625493264630        2.77275832598224
C            6.82339904305511       -2.74192627163534        2.93947309090773
C            7.50820885766224       -1.91547299650068        2.06409762070959
C            6.83991475560520       -1.29010625593551        1.02782228571455
C           -1.51984496463839        1.31711443880816       -0.47844456392144
C           -2.68820670229955        1.72390968113577       -1.12799647256558
C           -3.84689053105515        0.97892459673838       -1.06639518616493
C           -3.82045598411779       -0.19517273674172       -0.32370958985215
C           -2.63243685103585       -0.63212255255249        0.31119919237942
C           -1.47773983124384        0.13173224290632        0.23535447455332
C           -2.94151189204462       -1.88821720346939        0.93508860742362
C           -2.20532938600709       -2.77851349208565        1.70559697102061
C           -2.83109209128077       -3.91245374818689        2.18297633155467
C           -4.17610978537090       -4.15597487192156        1.91293059642862
C           -4.92861903124134       -3.28535018372876        1.14816125640309
C           -4.29903430086119       -2.15558674191674        0.64576216826916
N           -4.81548614890159       -1.12449505731120       -0.11473310568906
C           -6.13168926883764       -1.03916891296399       -0.59452625360178
C           -6.88041083343552        0.11362099560702       -0.37824214203116
C           -8.17526985907725        0.19426104466521       -0.85617216681424
C           -8.73490558932613       -0.87157182408702       -1.54094038015756
C           -7.99188003770282       -2.02102749777739       -1.75275142861197
C           -6.69274295838845       -2.10735179788497       -1.28757430046182
H           -1.24995576273695        2.14566844536198        2.12089472685307
H           -1.27749894971419        3.68980434654657        4.04559669624954
H           -0.26270196667323        5.92600814427266        3.84990068434558
H            0.78162171701582        6.62976872536027        1.72848698775826
H            0.80458983611251        5.06630616502368       -0.20536113905729
H            1.22129606353188        1.28686362436961        1.76428984241977
H            3.23108280860575       -0.11662118556521        2.03215940459853
H            1.80174135604514        1.50112652583459       -2.46007869879624
H            3.68744114979807        0.53128145975903       -4.24821173770906
H            5.62205304856046       -0.57611317377490       -5.32537958070865
H            7.20645746585291       -1.88914083588869       -3.99888540069933
H            6.93844124321005       -2.12570707367126       -1.56085794343139
H            3.73348159015472       -2.50823507898945        1.58565018071752
H            4.92692404437143       -3.59318260510185        3.45069147713568
H            7.34801060867639       -3.22554967074228        3.74950084737931
H            8.56747937712298       -1.74987886319054        2.19328768864131
H            7.36536319976616       -0.62765882200239        0.35632209634846
H           -2.65522044693546        2.64128103593964       -1.69769305983821
H           -4.73913380270400        1.29248111629198       -1.58698824469478
H           -0.56560261915579       -0.19858545180746        0.71015010949070
H           -1.16691087218865       -2.58111206716478        1.92581220522656
H           -2.27716068330075       -4.61984421515904        2.78199210168167
H           -4.64226775918283       -5.04414123217418        2.31324567515594
H           -5.97437691728733       -3.47453366521612        0.95850783763739
H           -6.44718660152400        0.93432689732121        0.17384357915622
H           -8.75214598744506        1.09122154723144       -0.68639890893739
H           -9.74745938553943       -0.80631005694517       -1.90929798088810
H           -8.42294170674739       -2.85251293608624       -2.29034102390349
H           -6.10219370140581       -2.99289090847524       -1.46945184626956
