75
 energy: -117.266146434749 gnorm: 0.000064777482 xtb: 6.7.1 (edcfbbe)
O            0.22921422582859        2.77676338194829       -2.44077537413039
P            0.12817049125497        2.31015297672070       -1.05251454285817
C            0.16765857992968        3.67152461760346        0.16224157879723
C           -0.35208385663454        4.88756641422620       -0.25877656013682
C           -0.37624432175477        5.96849470611354        0.60350389190477
C            0.12142994089492        5.83426302267118        1.88967080835858
C            0.64763092629211        4.62294231614827        2.30908611759919
C            0.67257454473403        3.53981491063615        1.44832091417946
C            1.47582342849338        1.18706819253183       -0.57240428574895
C            1.34584602798479        0.23962729019762        0.44626834085798
C            2.39447375371223       -0.58932388156977        0.78874740020519
C            3.58578307660680       -0.46095059675348        0.08502045664733
C            3.73179273655380        0.50966970281423       -0.93610011231616
C            2.66581406560163        1.33076416502021       -1.26571191674495
C            5.08049405549157        0.39615363942540       -1.41623939339403
C            5.79974189560863        1.05551945055034       -2.40422086162673
C            7.10746470311972        0.67648608869849       -2.63105834820307
C            7.69268808252303       -0.35406154430538       -1.89825333077053
C            6.99663155520819       -1.02415629316460       -0.91033088547683
C            5.68941624893291       -0.63178718097044       -0.66155841582167
N            4.77338824626014       -1.14035138578576        0.24070223365470
C            5.01157243176455       -2.18205695489677        1.15000309916041
C            4.14423959117211       -3.26872293938907        1.21081991849636
C            4.38203567956969       -4.29118234157823        2.11059850028041
C            5.48602473057989       -4.24460038983101        2.94561097064520
C            6.35252563065044       -3.16597655385940        2.88245476863355
C            6.11749007120264       -2.13357915946664        1.99331067234970
C           -1.41536162008395        1.41256025137171       -0.70326688456256
C           -2.00491785485447        1.37758775694543        0.56282283105018
C           -3.17444980315018        0.68034871205583        0.78719783998824
C           -3.75516774951024        0.01586128604110       -0.28600016519441
C           -3.15149836525316        0.02650938264540       -1.56726836416882
C           -1.97919386302952        0.73580910013491       -1.77180086082072
C           -3.98199165039170       -0.78209640304844       -2.41529631333215
C           -3.92066776470248       -1.13115483529449       -3.75792615218533
C           -4.92100314735691       -1.92750091085165       -4.27801140918470
C           -5.97862493502033       -2.36201468796662       -3.48167109332919
C           -6.06021952392105       -2.02812712194347       -2.14324942975637
C           -5.04544633529016       -1.24732379892258       -1.60919607779139
N           -4.89458404757122       -0.75640430180235       -0.32553248339498
C           -5.76742795427419       -0.98859470373199        0.74829404658595
C           -6.13818321655072       -2.28847172895938        1.07899006768077
C           -7.00454951865894       -2.51129828476024        2.13328463688441
C           -7.49790253298168       -1.44680733396391        2.86927556891468
C           -7.12539252346278       -0.15301982422778        2.54423038691731
C           -6.26762228818148        0.08064575258997        1.48540984454431
H           -0.72274254362634        4.96832957899654       -1.27074563958192
H           -0.78028390084841        6.91517206917938        0.27540722919760
H            0.10506185184849        6.67667756636797        2.56589694697329
H            1.04223990253418        4.52334676787225        3.31027001853118
H            1.09235773012888        2.59665985438597        1.76945723800502
H            0.40240896816222        0.14975694575129        0.96571998254388
H            2.29114467908682       -1.31070539335271        1.58577804861558
H            2.73773154601054        2.06988166669523       -2.04975172759419
H            5.33804729297834        1.84206122761287       -2.98107825262252
H            7.68686497996565        1.17640073118975       -3.39275266748059
H            8.71293086322149       -0.63862753395172       -2.10947695798926
H            7.45352223588541       -1.83316609168008       -0.36046415691421
H            3.29741467168187       -3.31179482049047        0.54216646818228
H            3.70641705073352       -5.13263396141371        2.15333869365354
H            5.67093552175630       -5.04712607844826        3.64350375303355
H            7.21240290922458       -3.12396539336383        3.53444147198781
H            6.77864210991082       -1.28069746542971        1.95518729009391
H           -1.54091472361254        1.91644815866860        1.37676176169752
H           -3.61921150640424        0.64901986460172        1.77082085868215
H           -1.50246556024714        0.78072779228635       -2.73986088251963
H           -3.10883080853212       -0.77932345531159       -4.37576618535576
H           -4.89330258598810       -2.21288334232913       -5.31897487927131
H           -6.75498260256319       -2.97075564505938       -3.92120588704792
H           -6.89297760959300       -2.35517487903885       -1.53896727523099
H           -5.73489988431817       -3.11651953723334        0.51530666491996
H           -7.28973488440529       -3.52182478591684        2.38586076664691
H           -8.17150516961043       -1.62496862958958        3.69377562663255
H           -7.51157966224089        0.68019757521934        3.11245699971772
H           -5.99208171846025        1.08892025372501        1.21418905910280
