  113
       -157.25842874
 C          5.7060931928        4.3359861166       -0.2031081750
 C          6.2161971567        2.9033385216       -0.0241885166
 C          7.3891766690        2.6853030290       -0.9902329293
 C          6.7029246028        2.7530002921        1.4243946244
 C          5.1429604572        1.8626793210       -0.3084742055
 C          3.8767292757        2.1995656616       -0.7615258000
 C          2.9332529858        1.2050616226       -0.9825943503
 C          3.2580510488       -0.1484492122       -0.7543817653
 C          4.5328575840       -0.5022978418       -0.3435476022
 C          5.4469055514        0.5083370109       -0.1216051457
 N          2.1700674867       -0.9420366913       -1.0665739616
 C          1.1305500982       -0.1099077489       -1.4551389218
 C          1.5659323633        1.2304085956       -1.4303268538
 C          0.6959397353        2.2493165280       -1.7859981845
 C         -0.6185132555        1.9586375144       -2.1265886943
 C         -1.0387947801        0.6272482793       -2.0817263715
 C         -0.1855798229       -0.4108448390       -1.7573134518
 C         -1.5424898237        3.0869897643       -2.5625744615
 C         -1.5805265393        4.1736624558       -1.4810368167
 C         -2.9800252439        2.6179077131       -2.8042420630
 C         -0.9999540795        3.6779091897       -3.8724216440
 C          2.0406573786       -2.3210118214       -0.9288723132
 C          1.4185282391       -3.0510859135       -1.9456150858
 C          1.0319949360       -4.3560652082       -1.7213755809
 C          1.2960252201       -4.9472004886       -0.4975991010
 C          2.0432851085       -4.2805670988        0.4584552684
 C          2.4311426989       -2.9724634450        0.2427678976
 S          0.1581985407       -6.2277809939        0.0557836275
 O         -0.3470503918       -6.9835571554       -1.0563638140
 O          0.6800675693       -6.9316096903        1.1940226979
 C         -1.0121180233       -4.9570562741        0.5649164601
 C         -0.7610392836       -4.3138993506        1.7649693286
 C         -1.1994087170       -3.0192735875        1.9497961043
 C         -1.8672582103       -2.3521152613        0.9191326881
 C         -2.2355184565       -3.0569689021       -0.2283354767
 C         -1.7913589424       -4.3531506614       -0.4066822067
 N         -2.0752245996       -0.9796397298        1.0229319014
 C         -3.2227401513       -0.2652314594        0.7322816532
 C         -2.9894507812        1.1079221304        0.9543159028
 C         -4.0056056311        2.0339595001        0.7608969073
 C         -5.2572656585        1.6084193057        0.3443406647
 C         -5.4680127587        0.2363763343        0.1570267644
 C         -4.4787374519       -0.7073699458        0.3498112747
 C         -6.4115510883        2.5701916851        0.1040855183
 C         -6.0031469693        4.0343700426        0.2883004636
 C         -6.9268841845        2.4007059831       -1.3322134075
 C         -7.5361130426        2.2553951406        1.1006778233
 C         -1.6196299973        1.2297077739        1.3760169551
 C         -1.0909280078       -0.0765644998        1.3954171414
 C          0.2468297724       -0.2829781375        1.6820520753
 C          1.0278410078        0.8134099899        1.9976030288
 C          0.5147523414        2.1117472421        2.0466144463
 C         -0.8202974917        2.3083334976        1.7201280782
 C          1.3598152028        3.3068429316        2.4643794619
 C          2.8205899528        2.9354882284        2.7326802389
 C          1.3393030672        4.3642398648        1.3532843313
 C          0.7688435552        3.8981035863        3.7528346139
 H          6.5019254013        5.0367032792        0.0412406374
 H          5.4042194450        4.5201341927       -1.2315219254
 H          4.8660684779        4.5357449373        0.4580205602
 H          7.8277421804        1.6994285317       -0.8625881319
 H          8.1638732433        3.4288320499       -0.8145258043
 H          7.0500430882        2.7760980619       -2.0201711465
 H          7.1479385533        1.7774431972        1.5974242749
 H          5.8727132706        2.8769373898        2.1161888512
 H          7.4525881811        3.5096665975        1.6458849021
 H          3.6042990089        3.2238917678       -0.9536910818
 H          4.8152350912       -1.5356431230       -0.2091923574
 H          6.4367847360        0.2281894312        0.2041559650
 H          1.0562615434        3.2660585841       -1.7965415153
 H         -2.0627301374        0.3788103743       -2.3065150878
 H         -0.5488672726       -1.4274277910       -1.7272079502
 H         -2.2713580700        4.9640729196       -1.7686198379
 H         -1.9137069345        3.7411940463       -0.5419913261
 H         -0.6025174855        4.6200897706       -1.3281422327
 H         -3.0280417878        1.8917057270       -3.6124200540
 H         -3.5935814036        3.4712758634       -3.0889095847
 H         -3.4029909445        2.1803572271       -1.9022706914
 H          0.0051194441        4.0694938730       -3.7399493840
 H         -0.9672768140        2.9128924262       -4.6454554136
 H         -1.6409991950        4.4876782163       -4.2147663003
 H          1.2030411887       -2.5681922880       -2.8862797676
 H          0.4911202623       -4.9186648654       -2.4659474007
 H          2.2642495619       -4.7810883776        1.3881772192
 H          2.9608895448       -2.4272993459        1.0089132110
 H         -0.1922264821       -4.8288762796        2.5230262068
 H         -0.9946621498       -2.4962302906        2.8712889579
 H         -2.7969281679       -2.5608134503       -1.0051788500
 H         -1.9973992049       -4.8925363326       -1.3180103516
 H         -3.8000768455        3.0747820092        0.9473565054
 H         -6.4438140974       -0.1128481763       -0.1435706381
 H         -4.6906815573       -1.7576117888        0.2177422426
 H         -5.6824456191        4.2272132341        1.3093464568
 H         -5.2019957410        4.3043297974       -0.3958393176
 H         -6.8560318350        4.6771639614        0.0796073719
 H         -7.3036020740        1.3967261957       -1.5055516315
 H         -6.1271058712        2.5928744379       -2.0441793282
 H         -7.7360042378        3.1024507172       -1.5234490354
 H         -7.9059907741        1.2417637311        0.9724543302
 H         -8.3675197885        2.9426766162        0.9584449994
 H         -7.1733355781        2.3581673956        2.1213986887
 H          0.6801591913       -1.2717459231        1.6496504840
 H          2.0692345157        0.6382533721        2.2111400649
 H         -1.2515944483        3.2972708312        1.7341032657
 H          2.9022177657        2.2268595340        3.5536964188
 H          3.2822976414        2.5099468167        1.8442748485
 H          3.3744741935        3.8309686203        3.0102561438
 H          1.9698964392        5.2083744552        1.6265203848
 H          1.7142111940        3.9307874128        0.4302743001
 H          0.3346824887        4.7366808193        1.1757439048
 H          1.3593700221        4.7512567867        4.0805817496
 H         -0.2548597195        4.2293000522        3.6012462427
 H          0.7710027998        3.1521182366        4.5448633991
