  113
  -156.403203653900       0.837455567533118      !
 C          5.7060931928        4.3359861166       -0.2031081750
 C          6.2161971567        2.9033385216       -0.0241885166
 C          7.3891766690        2.6853030290       -0.9902329293
 C          6.7029246028        2.7530002921        1.4243946244
 C          5.1429604572        1.8626793210       -0.3084742055
 C          3.8767292757        2.1995656616       -0.7615258000
 C          2.9332529858        1.2050616226       -0.9825943503
 C          3.2580510488       -0.1484492122       -0.7543817653
 C          4.5328575840       -0.5022978418       -0.3435476022
 C          5.4469055514        0.5083370109       -0.1216051457
 N          2.1700674867       -0.9420366913       -1.0665739616
 C          1.1305500982       -0.1099077489       -1.4551389218
 C          1.5659323633        1.2304085956       -1.4303268538
 C          0.6959397353        2.2493165280       -1.7859981845
 C         -0.6185132555        1.9586375144       -2.1265886943
 C         -1.0387947801        0.6272482793       -2.0817263715
 C         -0.1855798229       -0.4108448390       -1.7573134518
 C         -1.5424898237        3.0869897643       -2.5625744615
 C         -1.5805265393        4.1736624558       -1.4810368167
 C         -2.9800252439        2.6179077131       -2.8042420630
 C         -0.9999540795        3.6779091897       -3.8724216440
 C          2.0406573786       -2.3210118214       -0.9288723132
 C          1.4185282391       -3.0510859135       -1.9456150858
 C          1.0319949360       -4.3560652082       -1.7213755809
 C          1.2960252201       -4.9472004886       -0.4975991010
 C          2.0432851085       -4.2805670988        0.4584552684
 C          2.4311426989       -2.9724634450        0.2427678976
 S          0.1581985407       -6.2277809939        0.0557836275
 O         -0.3470503918       -6.9835571554       -1.0563638140
 O          0.6800675693       -6.9316096903        1.1940226979
 C         -1.0121180233       -4.9570562741        0.5649164601
 C         -0.7610392836       -4.3138993506        1.7649693286
 C         -1.1994087170       -3.0192735875        1.9497961043
 C         -1.8672582103       -2.3521152613        0.9191326881
 C         -2.2355184565       -3.0569689021       -0.2283354767
 C         -1.7913589424       -4.3531506614       -0.4066822067
 N         -2.0752245996       -0.9796397298        1.0229319014
 C         -3.2227401513       -0.2652314594        0.7322816532
 C         -2.9894507812        1.1079221304        0.9543159028
 C         -4.0056056311        2.0339595001        0.7608969073
 C         -5.2572656585        1.6084193057        0.3443406647
 C         -5.4680127587        0.2363763343        0.1570267644
 C         -4.4787374519       -0.7073699458        0.3498112747
 C         -6.4115510883        2.5701916851        0.1040855183
 C         -6.0031469693        4.0343700426        0.2883004636
 C         -6.9268841845        2.4007059831       -1.3322134075
 C         -7.5361130426        2.2553951406        1.1006778233
 C         -1.6196299973        1.2297077739        1.3760169551
 C         -1.0909280078       -0.0765644998        1.3954171414
 C          0.2468297724       -0.2829781375        1.6820520753
 C          1.0278410078        0.8134099899        1.9976030288
 C          0.5147523414        2.1117472421        2.0466144463
 C         -0.8202974917        2.3083334976        1.7201280782
 C          1.3598152028        3.3068429316        2.4643794619
 C          2.8205899528        2.9354882284        2.7326802389
 C          1.3393030672        4.3642398648        1.3532843313
 C          0.7688435552        3.8981035863        3.7528346139
 H          6.5019254013        5.0367032792        0.0412406374
 H          5.4042194450        4.5201341927       -1.2315219254
 H          4.8660684779        4.5357449373        0.4580205602
 H          7.8277421804        1.6994285317       -0.8625881319
 H          8.1638732433        3.4288320499       -0.8145258043
 H          7.0500430882        2.7760980619       -2.0201711465
 H          7.1479385533        1.7774431972        1.5974242749
 H          5.8727132706        2.8769373898        2.1161888512
 H          7.4525881811        3.5096665975        1.6458849021
 H          3.6042990089        3.2238917678       -0.9536910818
 H          4.8152350912       -1.5356431230       -0.2091923574
 H          6.4367847360        0.2281894312        0.2041559650
 H          1.0562615434        3.2660585841       -1.7965415153
 H         -2.0627301374        0.3788103743       -2.3065150878
 H         -0.5488672726       -1.4274277910       -1.7272079502
 H         -2.2713580700        4.9640729196       -1.7686198379
 H         -1.9137069345        3.7411940463       -0.5419913261
 H         -0.6025174855        4.6200897706       -1.3281422327
 H         -3.0280417878        1.8917057270       -3.6124200540
 H         -3.5935814036        3.4712758634       -3.0889095847
 H         -3.4029909445        2.1803572271       -1.9022706914
 H          0.0051194441        4.0694938730       -3.7399493840
 H         -0.9672768140        2.9128924262       -4.6454554136
 H         -1.6409991950        4.4876782163       -4.2147663003
 H          1.2030411887       -2.5681922880       -2.8862797676
 H          0.4911202623       -4.9186648654       -2.4659474007
 H          2.2642495619       -4.7810883776        1.3881772192
 H          2.9608895448       -2.4272993459        1.0089132110
 H         -0.1922264821       -4.8288762796        2.5230262068
 H         -0.9946621498       -2.4962302906        2.8712889579
 H         -2.7969281679       -2.5608134503       -1.0051788500
 H         -1.9973992049       -4.8925363326       -1.3180103516
 H         -3.8000768455        3.0747820092        0.9473565054
 H         -6.4438140974       -0.1128481763       -0.1435706381
 H         -4.6906815573       -1.7576117888        0.2177422426
 H         -5.6824456191        4.2272132341        1.3093464568
 H         -5.2019957410        4.3043297974       -0.3958393176
 H         -6.8560318350        4.6771639614        0.0796073719
 H         -7.3036020740        1.3967261957       -1.5055516315
 H         -6.1271058712        2.5928744379       -2.0441793282
 H         -7.7360042378        3.1024507172       -1.5234490354
 H         -7.9059907741        1.2417637311        0.9724543302
 H         -8.3675197885        2.9426766162        0.9584449994
 H         -7.1733355781        2.3581673956        2.1213986887
 H          0.6801591913       -1.2717459231        1.6496504840
 H          2.0692345157        0.6382533721        2.2111400649
 H         -1.2515944483        3.2972708312        1.7341032657
 H          2.9022177657        2.2268595340        3.5536964188
 H          3.2822976414        2.5099468167        1.8442748485
 H          3.3744741935        3.8309686203        3.0102561438
 H          1.9698964392        5.2083744552        1.6265203848
 H          1.7142111940        3.9307874128        0.4302743001
 H          0.3346824887        4.7366808193        1.1757439048
 H          1.3593700221        4.7512567867        4.0805817496
 H         -0.2548597195        4.2293000522        3.6012462427
 H          0.7710027998        3.1521182366        4.5448633991
  113
  -156.401541794400       0.144285944805373      !
 C          4.1118028897        3.2698327236        0.3523364673
 C          2.5877432113        3.4500696364        0.2960145634
 C          2.0224008671        3.5377240938        1.7191928235
 C          2.2885913666        4.7750326553       -0.4112534944
 C          1.9864365493        2.2542075286       -0.4279098562
 C          1.3226350868        2.3704898666       -1.6378724009
 C          0.8359292051        1.2355198182       -2.2722694415
 C          1.0487519629       -0.0389684136       -1.7136759150
 C          1.6758331107       -0.1669103740       -0.4846649718
 C          2.1285716972        0.9796363684        0.1351484642
 N          0.4745809670       -1.0030471676       -2.5285671315
 C         -0.1363345654       -0.3591572969       -3.5894430894
 C          0.0765599117        1.0319260589       -3.4769632954
 C         -0.4302387893        1.8939218302       -4.4358949268
 C         -1.1522964416        1.3924858270       -5.5116106219
 C         -1.3207278331        0.0093463610       -5.6150865503
 C         -0.8178647681       -0.8753334744       -4.6774459261
 C         -1.7259556152        2.3647672057       -6.5327651828
 C         -0.5770017658        3.1526494032       -7.1773798442
 C         -2.6807416601        3.3312268038       -5.8167614557
 C         -2.5075120765        1.6659877129       -7.6485029834
 C          0.4774386390       -2.3644282985       -2.2398560726
 C          1.6684917434       -2.9731141150       -1.8347211637
 C          1.6478445270       -4.2499832049       -1.3138341431
 C          0.4475988200       -4.9345778370       -1.2280330080
 C         -0.7135195496       -4.3905879588       -1.7492274628
 C         -0.7021893496       -3.1103420513       -2.2675411067
 S          0.2990107069       -6.1637954899        0.0768924381
 O         -0.8908022848       -6.9515715596       -0.0879816128
 O          1.5495895962       -6.8334994113        0.3028659516
 C          0.0433767613       -4.8517518294        1.2831717853
 C         -1.2074863964       -4.2591784583        1.3136617979
 C         -1.3386994327       -2.9650392062        1.7720083795
 C         -0.2097707902       -2.2501863568        2.1802820090
 C          1.0255968399       -2.8956324488        2.2518699578
 C          1.1493633386       -4.1915742104        1.7884470293
 N         -0.3255051083       -0.8887592299        2.4477761276
 C         -0.9671665559        0.0192720351        1.6204915668
 C         -0.9103900559        1.3014389381        2.1992837839
 C         -1.4904007533        2.3885633850        1.5588695479
 C         -2.0986994304        2.2189257530        0.3264658520
 C         -2.0895100194        0.9431489510       -0.2527246498
 C         -1.5389752260       -0.1578477672        0.3707589323
 C         -2.7985241130        3.3565110480       -0.4029693032
 C         -4.2917289596        3.0175028471       -0.5180227535
 C         -2.6672073124        4.6944002702        0.3308988119
 C         -2.1981626423        3.5265738622       -1.8035748308
 C         -0.1889412571        1.1610106809        3.4349724405
 C          0.1632009722       -0.1999419638        3.5430511297
 C          0.8391608762       -0.6599700285        4.6614987600
 C          1.1805031828        0.2578129821        5.6346944859
 C          0.8634281435        1.6194315432        5.5419329085
 C          0.1638771637        2.0615511229        4.4311113933
 C          1.2890156192        2.5516043205        6.6667083430
 C          0.6412558453        2.0874133198        7.9788228501
 C          2.8180838327        2.5145297772        6.7987309943
 C          0.8697014874        4.0029071669        6.4170244733
 H          4.5738109804        4.1214200703        0.8472698430
 H          4.3805772721        2.3698246880        0.8986507636
 H          4.5193845631        3.1923782254       -0.6535892891
 H          0.9403800174        3.6301440442        1.6823377971
 H          2.4315884934        4.4072362877        2.2299136760
 H          2.2635157512        2.6561824796        2.3061232215
 H          1.2165907579        4.9473673482       -0.4776443818
 H          2.7161647108        4.7934584445       -1.4109177711
 H          2.7267237499        5.5952064672        0.1540491758
 H          1.1758376873        3.3275400409       -2.1100040361
 H          1.7968759521       -1.1309045829       -0.0124842243
 H          2.6144720289        0.8757046335        1.0932772241
 H         -0.2552192361        2.9530241490       -4.3304493347
 H         -1.8575344121       -0.4062370151       -6.4514393501
 H         -0.9519973061       -1.9389535015       -4.8055637386
 H         -0.0241951568        3.7242708397       -6.4372746462
 H          0.1154014455        2.4724599825       -7.6689999332
 H         -0.9672380786        3.8448641800       -7.9205802000
 H         -3.4849241650        2.7779895872       -5.3357349844
 H         -3.1192278182        4.0241919717       -6.5317730880
 H         -2.1627290554        3.9084983844       -5.0563504189
 H         -1.8676540462        0.9925651017       -8.2139872533
 H         -3.3496657677        1.1068417007       -7.2470696139
 H         -2.8989936451        2.4121756018       -8.3372376091
 H          2.5919804269       -2.4180665420       -1.8943010995
 H          2.5432506025       -4.7189503320       -0.9374015325
 H         -1.6263147901       -4.9628817547       -1.6946249100
 H         -1.6155221804       -2.6559460948       -2.6199372650
 H         -2.0565661923       -4.8156867314        0.9494558726
 H         -2.3034520229       -2.4816577567        1.7869035567
 H          1.8919141059       -2.3550929067        2.6016874674
 H          2.1060603966       -4.6898786599        1.7708387924
 H         -1.4591210060        3.3499457942        2.0444397836
 H         -2.5323713758        0.8010739234       -1.2268125879
 H         -1.5473815216       -1.1248016182       -0.1110946468
 H         -4.4436929367        2.1027179888       -1.0842955838
 H         -4.7246134226        2.8824958100        0.4711335877
 H         -4.8226749137        3.8233616908       -1.0206506015
 H         -1.6229116727        4.9793368673        0.4391643416
 H         -3.1294348068        4.6515863149        1.3142843339
 H         -3.1700010517        5.4721712724       -0.2405298934
 H         -1.1360834367        3.7432588275       -1.7264661834
 H         -2.6875390430        4.3497548144       -2.3207682643
 H         -2.3163241939        2.6298194192       -2.4043035369
 H          1.0831763254       -1.7046031613        4.7830333626
 H          1.7100983946       -0.1042576117        6.5025361752
 H         -0.1207915920        3.0938124471        4.3175577756
 H         -0.4426702223        2.0865664535        7.8827717394
 H          0.9594671034        1.0837533061        8.2462917169
 H          0.9154513603        2.7583378773        8.7902776410
 H          3.1429839292        3.1888547890        7.5881411517
 H          3.1721736605        1.5160154808        7.0388181238
 H          3.2827201897        2.8263645661        5.8656806635
 H         -0.2119017472        4.0910559805        6.3485764754
 H          1.2047712842        4.6244383197        7.2449637159
 H          1.3182980748        4.3877989542        5.5041297607
  113
  -156.399588310100       1.825848766150895E-002 !
 C          0.9714232799        5.0621255337       -0.6885547974
 C          0.2894223853        3.8735640670       -0.0048702837
 C          0.9415160493        3.6748134899        1.3714263032
 C         -1.1970293558        4.2109592216        0.1707617215
 C          0.4177744692        2.5862778837       -0.8058678032
 C          1.0946736193        2.5163260121       -2.0127872631
 C          1.1961424214        1.3002759489       -2.6773064226
 C          0.6037001505        0.1414482956       -2.1366614636
 C         -0.0716299099        0.1970620279       -0.9278317944
 C         -0.1540158689        1.4168504645       -0.2882125718
 N          0.8932790791       -0.9453590614       -2.9477748119
 C          1.6826013030       -0.5021631746       -3.9918493532
 C          1.8732486826        0.8902987225       -3.8788929475
 C          2.6079584364        1.5778745662       -4.8358001291
 C          3.1541828415        0.8910506029       -5.9080288973
 C          2.9353704468       -0.4899712849       -6.0022191969
 C          2.2067956677       -1.1985909995       -5.0683438401
 C          3.9761089624        1.5780946203       -6.9890721948
 C          5.3788405759        0.9551237646       -7.0268895886
 C          4.1318355580        3.0813954344       -6.7433723657
 C          3.2846934256        1.3867690577       -8.3462835424
 C          0.6215565668       -2.2630419780       -2.5812991784
 C         -0.6810903829       -2.6178159095       -2.2225441885
 C         -0.9192672224       -3.8384306123       -1.6269996956
 C          0.1362628232       -4.7064784233       -1.4000430668
 C          1.4081631688       -4.4104368726       -1.8528104883
 C          1.6520539496       -3.1954416498       -2.4657346783
 S         -0.0768515560       -5.9005787329       -0.0722273394
 O         -1.2917173396       -6.6547871356       -0.2161366659
 O          1.1543094124       -6.6116442118        0.1358630332
 C         -0.3193230505       -4.6097633161        1.1596673227
 C         -1.5946710812       -4.3307100361        1.6128617639
 C         -1.8538490900       -3.1156025566        2.2181917838
 C         -0.8431826651       -2.1579001632        2.3258567672
 C          0.4568724188       -2.4799368339        1.9281963372
 C          0.7126654677       -3.7058036400        1.3488482764
 N         -1.1502184606       -0.8730487083        2.7661919192
 C         -2.2163474993       -0.1160467279        2.3031348986
 C         -2.1701575836        1.1657058515        2.8881921680
 C         -3.1199351496        2.1273063572        2.5677456735
 C         -4.1129387173        1.8324810360        1.6476465845
 C         -4.1113123567        0.5661267617        1.0489290698
 C         -3.1832776230       -0.4090431589        1.3543371461
 C         -5.1961655830        2.8283697964        1.2610989626
 C         -6.5646311982        2.2428016688        1.6373925271
 C         -5.0392169552        4.1733305624        1.9759663457
 C         -5.1385765314        3.0850684388       -0.2511510029
 C         -1.0105246618        1.1865023126        3.7373641058
 C         -0.4058561348       -0.0818592315        3.6256292783
 C          0.7270202710       -0.3772801563        4.3670770601
 C          1.2602888070        0.6184800722        5.1608237049
 C          0.6993273193        1.8986006871        5.2599120992
 C         -0.4568396296        2.1688766266        4.5473822095
 C          1.3825374613        2.9378141706        6.1356730941
 C          0.6236301466        4.2672841172        6.1694822614
 C          1.4823669660        2.4114325524        7.5740136517
 C          2.7877465239        3.2044792812        5.5774719762
 H          0.8444654344        5.9540654083       -0.0780803053
 H          2.0379873980        4.8860333815       -0.8069900452
 H          0.5309300423        5.2576805751       -1.6634820166
 H          0.4444942500        2.8948898170        1.9414906179
 H          0.8918096137        4.5985712292        1.9446106317
 H          1.9875484672        3.3978520160        1.2552360118
 H         -1.3066582792        5.1317126453        0.7409117342
 H         -1.7226218055        3.4173038707        0.6950531879
 H         -1.6655595924        4.3505031816       -0.8019663493
 H          1.5636269387        3.3824861572       -2.4490690433
 H         -0.5058478959       -0.6856132862       -0.4811887399
 H         -0.6788121489        1.4569588084        0.6527633077
 H          2.7350840261        2.6413861878       -4.7222585053
 H          3.3462146187       -1.0348880322       -6.8382096087
 H          2.0468488141       -2.2606354635       -5.1812756752
 H          5.8655714125        1.0675983720       -6.0602447523
 H          5.3375503666       -0.1037827231       -7.2659489180
 H          5.9884466086        1.4498467032       -7.7801338016
 H          4.6368683591        3.2733844826       -5.7995034923
 H          3.1651783998        3.5796595350       -6.7399227168
 H          4.7312931857        3.5182390968       -7.5396102627
 H          3.2064287531        0.3353002179       -8.6080540831
 H          2.2811742224        1.8063512080       -8.3185903576
 H          3.8486057493        1.8907962838       -9.1284607856
 H         -1.4829291789       -1.9123611439       -2.3782903896
 H         -1.9077286729       -4.1184419884       -1.2971851766
 H          2.2018594927       -5.1180414304       -1.6698789207
 H          2.6495856724       -2.9296856055       -2.7812473223
 H         -2.3713431531       -5.0649910853        1.4655844132
 H         -2.8420214659       -2.8884859504        2.5876382587
 H          1.2406622496       -1.7437554295        2.0162113724
 H          1.7011484812       -3.9579615691        0.9976884968
 H         -3.0564005280        3.0921220914        3.0425381988
 H         -4.8634863104        0.3288550589        0.3126491799
 H         -3.2099636093       -1.3629497525        0.8496542205
 H         -6.7551076500        1.3104859159        1.1129532404
 H         -6.6091149865        2.0462984686        2.7067922383
 H         -7.3563919408        2.9441277658        1.3827328993
 H         -5.1029074932        4.0538670790        3.0550546821
 H         -5.8392442299        4.8427410245        1.6664233487
 H         -4.0918982300        4.6427978158        1.7212102695
 H         -4.1604060499        3.4698464360       -0.5305365276
 H         -5.8917893573        3.8173303930       -0.5341522729
 H         -5.3210982950        2.1766349153       -0.8184196898
 H          1.1809680726       -1.3562068524        4.3389689639
 H          2.1495932962        0.3862013269        5.7262281152
 H         -0.9444879883        3.1276226670        4.6012340254
 H          1.1516759498        4.9695524218        6.8113327058
 H          0.5579394487        4.7055123660        5.1763742455
 H         -0.3788497781        4.1351537305        6.5701218597
 H          1.9400595044        3.1613972806        8.2157176016
 H          0.4909615179        2.1845836557        7.9607829527
 H          2.0836325859        1.5083896409        7.6279560686
 H          2.7214134389        3.5629004960        4.5521101406
 H          3.2928287190        3.9591914378        6.1765728340
 H          3.3936370979        2.3026194537        5.5837610629
