72
 energy: -108.399057976641 gnorm: 0.000104762860 xtb: 6.7.1 (edcfbbe)
C           -6.38386600554422       -0.46357573810945        0.01192779544727
C           -5.08735551844515       -0.23693477150044        0.81195866957888
C           -5.38684405580004       -0.20329217152061        2.32244068850322
C           -4.14158118711358       -1.38659099536514        0.52439822901466
C           -4.53153301213887       -2.68313222118262        0.83580923649847
C           -3.73988339063618       -3.77972707124760        0.54994319181783
C           -2.53130040025848       -3.58986146410321       -0.09453669437612
C           -2.12013346153529       -2.31223921577421       -0.41300118092486
C           -2.89686843608854       -1.19955974833208       -0.08273892407828
N           -2.44334634666949        0.08042386984123       -0.39858327015638
C           -1.21498006248179        0.23549398677123       -1.06800259351021
C           -0.01448601316497        0.04033964411935       -0.39826127834289
C            1.20678704438083        0.24636096157200       -1.03132541118543
N            2.41668471620336        0.11008527882773       -0.33393931651624
C            3.22794933854187        1.23909421047512       -0.18923228493093
C            2.71109262124653        2.50148331292556       -0.49285891095644
C            3.48845230885533        3.63527360204859       -0.38246651912689
C            4.79636090333444        3.52949220290190        0.05433676546015
C            5.28941472493832        2.28954629841035        0.41273324131611
C            4.52504752112464        1.13320994550164        0.31617014698448
C            5.10714689733406       -0.18462381949595        0.78569554745534
C            5.50865905394417       -0.03991199957689        2.26600395535516
C            6.34084293896088       -0.51649385561171       -0.07448354731624
C            4.11176027064194       -1.32065733926347        0.65370470092780
C            4.48377840933687       -2.59542941671160        1.06359642625890
C            3.64997376052700       -3.68837760015032        0.92305328833376
C            2.41329489864485       -3.51953966632905        0.32817873998501
C            2.02085801745402       -2.26476482612415       -0.08909722786134
C            2.84312983984771       -1.15055716062865        0.09186894620084
C            1.21524384831234        0.63321476039638       -2.38976989827153
C            2.44127569799709        0.81277957074354       -3.06897112522160
N            3.42863516027428        0.93634067306453       -3.63946261200582
C            0.01979898984404        0.81927702689370       -3.07508643426748
C           -1.19391928109495        0.62606007482541       -2.42372452614507
C           -2.40780716028696        0.80369817153335       -3.12370941169710
N           -3.39222469595408        0.92946798974043       -3.69892239396338
C           -3.22212658340590        1.21277940733749       -0.15735713646772
C           -2.70179597268046        2.48057134815894       -0.42880316871620
C           -3.44927810034164        3.61894194155239       -0.20971892028721
C           -4.72889984506599        3.51089500709211        0.30300324139663
C           -5.22726291593811        2.26028415000142        0.61553996485740
C           -4.49522833044408        1.09844515330141        0.40584383002991
H           -7.10066201978287        0.32921049973868        0.20565082521725
H           -6.16366916873842       -0.47395686422408       -1.05456747863293
H           -6.84328148926379       -1.41139961858480        0.27751740036796
H           -4.46439877471572       -0.05145689342752        2.88043359329992
H           -6.07073250836139        0.60496476770177        2.56424134008218
H           -5.83577436326209       -1.13707421572778        2.64819357736242
H           -5.48586697750161       -2.84763609784718        1.31150158275152
H           -4.07307781585996       -4.77258210386962        0.81084488981529
H           -1.91008103063836       -4.43234448686185       -0.35906885011836
H           -1.18906670301947       -2.17916880411245       -0.94172887915493
H           -0.03162188389521       -0.24277439862113        0.64399432882694
H            1.68466871265750        2.60478424739490       -0.81174124628956
H            3.06694772412939        4.59721501458418       -0.63308346985213
H            5.42099236650426        4.40607382370337        0.13270490182695
H            6.30220299720684        2.22416101471446        0.77856283596670
H            6.24655098479286        0.74662719163435        2.39227275198575
H            4.63440602666506        0.20909685614285        2.86517811102150
H            5.93267528232086       -0.96502595607289        2.64495881155819
H            6.04901096655210       -0.62004123020630       -1.11837282687495
H            7.08287442060146        0.27372164744427       -0.00404742811146
H            6.79969558262418       -1.44672304399251        0.24836764747960
H            5.45896248978687       -2.74545842333016        1.49990077754257
H            3.97110019142035       -4.66325195065402        1.25657485158094
H            1.75355740602833       -4.36108791947163        0.17980886019903
H            1.06520984595215       -2.15625086821434       -0.57568588341058
H            0.03420428242664        1.10826201380563       -4.11576748728205
H           -1.69679712317035        2.58392465801155       -0.80960960207663
H           -3.02631559262612        4.58628213788979       -0.43641150628131
H           -5.32854139049479        4.39225401139763        0.47155584650496
H           -6.21863662498497        2.19136948407579        1.03566490557635
