72
 energy: -108.329314029327 gnorm: 0.000070614063 xtb: 6.7.1 (edcfbbe)
C           -6.41762494983659        0.32904049180956       -0.16719821761878
C           -5.13239417592481        0.36548113705483       -1.01857877894030
C           -5.48265825504354        0.63226439145584       -2.49652504714055
C           -4.25426227554413        1.48740002689469       -0.51154334624294
C           -4.71917414784591        2.79532972128083       -0.54485194788686
C           -3.96832679081372        3.85305139789285       -0.06552109809101
C           -2.71571967333976        3.61154907014949        0.48039459338728
C           -2.22877466859117        2.32610464676135        0.52597150102234
C           -2.97743621351101        1.25061545462207        0.02472900195822
N           -2.44948466595871       -0.02224332476498        0.06920452551887
C           -1.20394824810448       -0.23949561679538        0.71935769241173
C           -0.00201352165218       -0.01645915763937        0.07490299166998
C            1.20388269909434       -0.23270876183699        0.71460204957250
N            2.44615035147498       -0.01074810307501        0.06007358636241
C            3.15644418861297       -1.10247917468484       -0.39097285696845
C            2.56288056196238       -2.37334652371484       -0.34529236992941
C            3.24751163689015       -3.48922096946931       -0.76662172371731
C            4.54135390186286       -3.36018165569981       -1.25112973630366
C            5.12328533995527       -2.10746127747374       -1.31977423950226
C            4.45608118245928       -0.96304424719768       -0.90523712446000
C            5.13433385719340        0.38407616363517       -1.01265160201558
C            5.49799377051134        0.63903472459465       -2.48951913428549
C            6.41113555869481        0.36368751987692       -0.14823028319660
C            4.24391929721389        1.50533713200516       -0.52605464163528
C            4.70022562770222        2.81597971143047       -0.57034499445243
C            3.93678622012563        3.87430069092380       -0.11268756872152
C            2.67953778530640        3.63091275201918        0.42159759472488
C            2.20175034546888        2.34251767907591        0.47952845640316
C            2.96383720791858        1.26591422485763        0.00134457119446
C            1.21629725445643       -0.70203424909119        2.08806435679404
C            2.42369971606888       -0.91438945166733        2.74094066536702
N            3.43950071962176       -1.08728731521510        3.27151505985082
C            0.00554238437999       -0.91941274889122        2.73267486766386
C           -1.20888743187022       -0.70876985736038        2.09278694841243
C           -2.41330539776975       -0.92748632154273        2.74895606105077
N           -3.42727918821382       -1.10545272479486        3.28136740079756
C           -3.15022983603447       -1.11463785812078       -0.39469380074951
C           -2.55018286854356       -2.38255672238104       -0.35345662899289
C           -3.22557738959563       -3.49902176462017       -0.78798923477944
C           -4.51614343352016       -3.37336620649877       -1.28201739706321
C           -5.10452315096803       -2.12340125708457       -1.34566344201041
C           -4.44705810477238       -0.97855628332539       -0.91691316362174
H           -7.08713197044263       -0.45169853413042       -0.51540946753276
H           -6.16779811502342        0.12913569937086        0.87343066051268
H           -6.94087609819597        1.27914498545687       -0.21948732963317
H           -4.57322280207001        0.67014618535788       -3.09320622542640
H           -6.11923076700951       -0.15510558059609       -2.88808437743005
H           -6.00546246947639        1.57772471065046       -2.60273455696245
H           -5.69732610222478        2.99975794138847       -0.95084218876175
H           -4.36020342405957        4.85758420164234       -0.10814872908138
H           -2.12274548128363        4.42378857325134        0.87237013189109
H           -1.26163804916530        2.13270103841419        0.96177645408718
H           -0.00510382563968        0.32978871068642       -0.94977852549415
H            1.55520961151070       -2.47044898099085        0.02701394452759
H            2.77468912384722       -4.45835155114239       -0.71806122231834
H            5.09049504774982       -4.23011512759138       -1.57693761087503
H            6.12708077119342       -2.02592812814832       -1.70593371681672
H            6.01662079360550        1.58635467845143       -2.59934070031108
H            6.14291496635673       -0.14825013613374       -2.86728810773414
H            4.59443829154322        0.66618174249353       -3.09564653718432
H            6.15221032886883        0.17263347352764        0.89179937556083
H            7.08842868552212       -0.41665467405838       -0.48202994758308
H            6.92939742930465        1.31629574408984       -0.20484463690371
H            5.68133771978619        3.02229313304779       -0.96812790305510
H            4.32224737374262        4.88092413867514       -0.16355954661515
H            2.07595455823970        4.44395722169872        0.79526497055787
H            1.23126798988044        2.14791267535822        0.90711569643857
H            0.00855531028059       -1.26342901013953        3.75922851225649
H           -1.54520330738344       -2.47704080268521        0.02669847460203
H           -2.74814011251029       -4.46601207541161       -0.74217173678085
H           -5.05769411243091       -4.24375326625746       -1.61910564897206
H           -6.10564343568714       -2.04443944721977       -1.73923967961488
