72
 energy: -108.315977557939 gnorm: 0.000051060937 xtb: 6.7.1 (edcfbbe)
C           -3.82952761972213       -0.45330536222560       -2.48141682866922
C           -4.53848317058105        0.57178304161017       -1.57112800116567
C           -5.83362793326495        0.99938944441378       -2.26210730295049
C           -4.78843074527547       -0.06104722228030       -0.21472808248871
C           -6.01612395845812       -0.49577115618929        0.24765468079089
C           -6.14048306734957       -1.07527605841354        1.50382776966646
C           -5.03451482674957       -1.21321043187763        2.32564657247323
C           -3.79649468621511       -0.79157091912283        1.88744966621090
C           -3.66835820483283       -0.23314553956142        0.61269044715284
N           -2.43671954581827        0.25631597984667        0.17725352378174
C           -1.27555779219858       -0.48557636593658        0.33461993916415
C           -0.00192170630354        0.03286608013428        0.13978496169444
C            1.14267691763039       -0.71033008817969        0.36444942072100
N            2.43460866334379       -0.15883462678057        0.16023928886183
C            3.17777910568142       -0.61340778090031       -0.90888516644042
C            2.57736997468228       -1.46426780116196       -1.85044039137284
C            3.29775704785566       -1.96658025640670       -2.90913678864778
C            4.63253677510573       -1.61966255457387       -3.06000339718298
C            5.21871444295710       -0.75128660395133       -2.15691428206830
C            4.51724940198362       -0.22680029760039       -1.08041314280809
C            5.19785580047449        0.74003542107550       -0.13802585676291
C            5.67222218929987        1.96445312029216       -0.94684351100760
C            6.40429315430001        0.03184370751200        0.51066190849495
C            4.27006847439224        1.20568944982397        0.96171517831128
C            4.72716547635445        2.11478362816853        1.90663513790930
C            3.93514459847010        2.54274888627174        2.95620862062037
C            2.64898593357000        2.04006852058039        3.09069655858668
C            2.16809332261559        1.13921542886232        2.16878049992113
C            2.95643631401247        0.72271347014413        1.08500097057795
C            1.03529514595372       -2.08480792469718        0.81254184044873
C            2.17347144824847       -2.81529922404253        1.13232266423743
N            3.13248742873106       -3.40662256345766        1.40028021340239
C           -0.22904690306755       -2.65070181793156        0.87594625505918
C           -1.38245136224219       -1.92354007458005        0.59899168485810
C           -2.54862081103875       -2.66823309145782        0.43981848077579
N           -3.41890114283084       -3.41196630225076        0.25342599701864
C           -2.53580669544344        1.52250385507134       -0.41777396158258
C           -1.71127704817066        2.58452169010679       -0.04715873326165
C           -1.86983799715618        3.82387280670240       -0.63541919630935
C           -2.86709809630780        4.02067165708469       -1.57563707823858
C           -3.73770856913028        2.98729982065474       -1.88790745032263
C           -3.60106293909863        1.73655151932572       -1.31102583759121
H           -3.60211947283741        0.00194795582612       -3.44302495626870
H           -2.90172214834377       -0.80957524799014       -2.04125195502226
H           -4.47548406034481       -1.31370161591962       -2.64142097891292
H           -6.37355173668872        1.72813642149554       -1.66205657361130
H           -5.61486639855557        1.42844411269355       -3.23633124216789
H           -6.46807745124803        0.13240539374888       -2.42557101855309
H           -6.89623603139201       -0.39624869242639       -0.36601841202689
H           -7.10881458435296       -1.41079334614874        1.84244902486902
H           -5.13645629784275       -1.64416766493182        3.31018922469934
H           -2.93042379380132       -0.86346022048723        2.52953521025250
H            0.12727577537348        1.04300299818681       -0.21169473049948
H            1.53586899475590       -1.72425824194856       -1.74262331864070
H            2.81914696949883       -2.62618637283401       -3.61695262417288
H            5.20905117988983       -2.01558661198256       -3.88175835676076
H            6.25277189608679       -0.47989773599232       -2.29974886274200
H            6.34504065993261        1.66104606126392       -1.74291513147439
H            4.81729867938730        2.47011709277156       -1.39170369484611
H            6.19609058304411        2.66825293772022       -0.30758359436721
H            6.06711944598889       -0.84374107956180        1.06289779615141
H            7.11219968696112       -0.29177911532612       -0.24637034538613
H            6.91723224036147        0.69714993926067        1.19880038837632
H            5.73201689412074        2.49883808585691        1.82946356325829
H            4.32118363636934        3.25275372118732        3.67120308622882
H            2.02409819729300        2.34790089738668        3.91532239770578
H            1.17418733935450        0.73631472645305        2.28257087157988
H           -0.32473448259013       -3.70187095939158        1.11626632765636
H           -0.98586587312731        2.45716404162539        0.74059695449581
H           -1.22465273359229        4.63886611128367       -0.34378725040116
H           -2.98941174142869        4.98512281099523       -2.04439135125069
H           -4.53304762323512        3.17435318828667       -2.59010514933810
