72
 energy: -108.401556364795 gnorm: 0.000030079420 xtb: 6.7.1 (edcfbbe)
C           -3.56319504299357       -0.46154998721717       -2.42519598928824
C           -4.35018538153865        0.55679223875615       -1.57564408611808
C           -5.56637405456454        1.00469165461344       -2.38639358038274
C           -4.74430374791162       -0.08372133199610       -0.25427545735695
C           -6.03087221859421       -0.46549091467834        0.09261428693230
C           -6.29984476634719       -0.99274030643319        1.34512982021305
C           -5.29220988983754       -1.12524816133873        2.28385212071784
C           -4.00131246436488       -0.75358365633359        1.95891191671958
C           -3.73037586270865       -0.26689823529071        0.68761009780499
N           -2.43422163205280        0.19719031130878        0.35749048173985
C           -1.31874593130633       -0.57033196859183        0.44078419273675
C           -0.04327310093333       -0.03710779789843        0.17859133655374
C            1.11025630953018       -0.77157760054749        0.33953324918931
N            2.36812182832009       -0.17744294999730        0.09976614493946
C            3.13067789293791       -0.64846873643234       -0.96588744141829
C            2.54565914047187       -1.50327218305216       -1.90376039939417
C            3.27480424810230       -2.00355957849031       -2.96222126984902
C            4.60133104110093       -1.64284815271461       -3.11248537128733
C            5.16745073609678       -0.75949906597248       -2.21235600316525
C            4.45485164309686       -0.23912716640596       -1.14003694568633
C            5.12157484707979        0.75819767963619       -0.21292577709927
C            5.58113596479828        1.97002486340294       -1.04567887045592
C            6.33107971556284        0.07877522981758        0.45608951059103
C            4.17898936472337        1.23697302798297        0.87481195277565
C            4.62892257383677        2.17259577878847        1.79770277298707
C            3.83894829779005        2.61991324536802        2.84014834865113
C            2.56494101979366        2.10361622600261        2.98869629835833
C            2.09346566785156        1.17282981271344        2.08613457307463
C            2.87657851603500        0.74598032627171        1.01035615790393
C            1.03566987699807       -2.12092734141234        0.75272180125951
C            2.20436090136011       -2.86871691755202        0.98501825655275
N            3.15514991963966       -3.47744861502956        1.19689772680704
C           -0.21617537818893       -2.70350058351362        0.89792359822691
C           -1.38295515204604       -1.96278722283226        0.72425290395870
C           -2.57191712660550       -2.72133219313292        0.72776469094013
N           -3.44000680110949       -3.47325178865792        0.67038511293048
C           -2.48080494644505        1.49631173721834       -0.21068991747747
C           -1.69408404810321        2.53411670821344        0.26940141260161
C           -1.79363999904922        3.79060365481019       -0.30165326143757
C           -2.69669273006906        4.00935243239498       -1.32617603657823
C           -3.52629928090545        2.98690962833483       -1.75728163092179
C           -3.44120891847552        1.71849230105604       -1.20330941001471
H           -3.25706943299098       -0.00123715154406       -3.36218985909215
H           -2.67291474376161       -0.81999228264913       -1.91561839106224
H           -4.19310117755485       -1.32083410295006       -2.64516143406384
H           -6.15921528393222        1.72952729585902       -1.83355648053640
H           -5.24737453566741        1.44653671743897       -3.32671239433609
H           -6.18727394058937        0.14572840874759       -2.62680638087545
H           -6.84060594065233       -0.35265493150362       -0.60899140614562
H           -7.30816063465025       -1.28752221072405        1.59333567609085
H           -5.50743364055380       -1.51100347728163        3.26839478583675
H           -3.20591975516814       -0.83537622743763        2.68604707519999
H            0.05007134305547        0.97788893756019       -0.17152410494969
H            1.50584575106501       -1.77904757683365       -1.80683617471227
H            2.80205349263541       -2.67117589540067       -3.66737577067474
H            5.18751220873916       -2.03534943682916       -3.92948843695800
H            6.19780262015637       -0.47109855761930       -2.35291820282571
H            6.27043094369303        1.66356497193331       -1.82700160334457
H            4.72100422599084        2.44615053474345       -1.51349850445983
H            6.08223464386998        2.70295783515332       -0.42014659352940
H            5.99930141191916       -0.78148359454526        1.03560254155955
H            7.04182650157888       -0.26549560526498       -0.28993614066042
H            6.84201325471192        0.76660388052045        1.12414743858098
H            5.63070100390470        2.56342340002683        1.70777279636217
H            4.22069214492705        3.35133504583258        3.53611562938956
H            1.93611821107160        2.41771464411945        3.80883237893949
H            1.10569359102670        0.76217890388064        2.22802291558884
H           -0.29368759910995       -3.75384903288659        1.14045185705633
H           -1.02641792973480        2.37090184203518        1.10170313953589
H           -1.17443540440963        4.59486419096907        0.06544690518769
H           -2.77535164251038        4.98669681440675       -1.77776756815261
H           -4.24638536019395        3.19379361449951       -2.53124984413733
