  72
       -108.35883264
 C         -3.5537147959       -0.4476873685       -2.3936668490
 C         -4.3550376420        0.5643465703       -1.5510844656
 C         -5.5712442218        1.0015667537       -2.3656590773
 C         -4.7460595647       -0.0856836448       -0.2348550068
 C         -6.0267760909       -0.4881419506        0.1066953850
 C         -6.2861904641       -1.0389739106        1.3508877760
 C         -5.2744987500       -1.1755679620        2.2843364634
 C         -3.9897679772       -0.7807501582        1.9639399380
 C         -3.7277440936       -0.2684444513        0.7011399187
 N         -2.4393953279        0.2109909550        0.3753068251
 C         -1.3183832929       -0.5548209898        0.4359107801
 C         -0.0509112349       -0.0102169010        0.1741888504
 C          1.1061998617       -0.7446990594        0.3116678246
 N          2.3584059332       -0.1479046752        0.0716152127
 C          3.1303279721       -0.6413178790       -0.9745652385
 C          2.5449212089       -1.4914558878       -1.9165651176
 C          3.2838338697       -2.0141962398       -2.9566926201
 C          4.6202700353       -1.6828262793       -3.0842056547
 C          5.1871673471       -0.8029579886       -2.1816735246
 C          4.4634688418       -0.2584302460       -1.1297422863
 C          5.1306210683        0.7282986250       -0.1943215759
 C          5.6645077433        1.9098292743       -1.0239648780
 C          6.2858488137        0.0106694503        0.5257757392
 C          4.1705005069        1.2549989244        0.8537033273
 C          4.6168555033        2.2024091929        1.7650371270
 C          3.8116913048        2.6870054586        2.7786454547
 C          2.5265349916        2.1948841589        2.9096159519
 C          2.0585422394        1.2520031648        2.0183602745
 C          2.8574393767        0.7878240736        0.9695210958
 C          1.0385913453       -2.1003381712        0.7010179750
 C          2.2204285629       -2.8355581505        0.9141854586
 N          3.1879042859       -3.4201044776        1.1137345237
 C         -0.2083360690       -2.6919836823        0.8412906268
 C         -1.3783277969       -1.9517225287        0.6876606129
 C         -2.5687020724       -2.7093048143        0.6671979404
 N         -3.4438026222       -3.4491803527        0.5817925790
 C         -2.4923996317        1.5069845491       -0.1872319557
 C         -1.7035853711        2.5451163389        0.2891559877
 C         -1.8097448124        3.8032289049       -0.2760974807
 C         -2.7214916122        4.0248547226       -1.2918651843
 C         -3.5509217818        3.0018892583       -1.7219076213
 C         -3.4570668428        1.7317174811       -1.1752704435
 H         -3.2542928099        0.0093222184       -3.3347501181
 H         -2.6610352641       -0.7870826613       -1.8789947246
 H         -4.1719247466       -1.3169706930       -2.6062533666
 H         -6.1741523216        1.7194404056       -1.8141944650
 H         -5.2543871354        1.4496227359       -3.3041700571
 H         -6.1835297909        0.1375684643       -2.6103933655
 H         -6.8385387168       -0.3766550741       -0.5931739332
 H         -7.2894066811       -1.3526019472        1.5947264162
 H         -5.4831100175       -1.5832778488        3.2609213105
 H         -3.1899980885       -0.8690219995        2.6849021731
 H          0.0366932802        1.0094467266       -0.1607089740
 H          1.4989999063       -1.7444806111       -1.8376676114
 H          2.8121220790       -2.6777062669       -3.6657360880
 H          5.2134014608       -2.0951268395       -3.8855530270
 H          6.2262381311       -0.5388388186       -2.3024880105
 H          6.3629113690        1.5678125739       -1.7817766028
 H          4.8389169920        2.4157158664       -1.5215094004
 H          6.1778343494        2.6290256308       -0.3926937452
 H          5.8978873595       -0.8388670297        1.0843514200
 H          7.0167534926       -0.3549643536       -0.1897456520
 H          6.7872233183        0.6803356503        1.2189461121
 H          5.6282645971        2.5708225994        1.6915230157
 H          4.1903371112        3.4262571318        3.4671609443
 H          1.8863632268        2.5370598858        3.7091734857
 H          1.0637417225        0.8582377210        2.1516808020
 H         -0.2811896219       -3.7467382051        1.0621682186
 H         -1.0302127025        2.3805943003        1.1165460842
 H         -1.1896379087        4.6073167156        0.0891247806
 H         -2.8065132457        5.0038193275       -1.7378485426
 H         -4.2765419163        3.2103139626       -2.4908219863
