  72
       -108.28271153
 C         -6.3408266289        0.2908483237        0.1807516237
 C         -5.2234440411        0.3634428025       -0.8781375041
 C         -5.8186325800        0.6267009699       -2.2734132119
 C         -4.3018535472        1.5025250942       -0.5049115544
 C         -4.7767387564        2.8064814475       -0.5103550403
 C         -3.9882643820        3.8755613624       -0.1253368790
 C         -2.6887866855        3.6476672791        0.3022978703
 C         -2.1941717894        2.3646608743        0.3270489696
 C         -2.9808339966        1.2792417072       -0.0854767866
 N         -2.4503952621        0.0106951882       -0.0591400253
 C         -1.1998285778       -0.2173121130        0.5660168962
 C         -0.0005171517        0.0495660600       -0.0635881515
 C          1.2008756809       -0.2113047715        0.5653478234
 N          2.4498028647        0.0167104063       -0.0619404195
 C          3.1812179734       -1.0810291067       -0.4524346706
 C          2.5662229398       -2.3426442291       -0.4603227855
 C          3.2698776567       -3.4680204653       -0.8192590575
 C          4.6038527344       -3.3583429016       -1.1831743577
 C          5.2074969559       -2.1137109948       -1.2012051580
 C          4.5199439284       -0.9603044360       -0.8543966637
 C          5.2238026960        0.3767269061       -0.8754944321
 C          5.8279083986        0.6088881713       -2.2725487251
 C          6.3328568577        0.3435802168        0.1939901111
 C          4.2875229372        1.5156693047       -0.5398597463
 C          4.7486110508        2.8239272177       -0.5800947719
 C          3.9470948812        3.8950839245       -0.2292809490
 C          2.6483657278        3.6653319301        0.1991276510
 C          2.1672036881        2.3782937910        0.2580691544
 C          2.9667969934        1.2899968957       -0.1205908377
 C          1.2111227995       -0.7655615287        1.9093049875
 C          2.4337942322       -0.9953498898        2.5300168826
 N          3.4713269065       -1.1530125941        3.0194860126
 C          0.0023825813       -1.0208501068        2.5417087793
 C         -1.2077915412       -0.7736896866        1.9090162619
 C         -2.4300030367       -1.0114973835        2.5274207976
 N         -3.4687144560       -1.1956828760        3.0034404225
 C         -3.1693668290       -1.0847509119       -0.4774866344
 C         -2.5430582654       -2.3402934753       -0.5085899053
 C         -3.2331523845       -3.4631042559       -0.9003617004
 C         -4.5647075603       -3.3567403300       -1.2744302665
 C         -5.1801154866       -2.1178946174       -1.2668118792
 C         -4.5063825243       -0.9668293855       -0.8861012959
 H         -7.0507491450       -0.4936440914       -0.0657479691
 H         -5.9071918933        0.0691278060        1.1540900825
 H         -6.8735189229        1.2354553580        0.2443221560
 H         -5.0211581720        0.6932773965       -3.0109191851
 H         -6.4904162577       -0.1741362769       -2.5655419463
 H         -6.3795371039        1.5561291980       -2.2880861039
 H         -5.7931348890        3.0000272361       -0.8158781771
 H         -4.3883286556        4.8772230049       -0.1471957211
 H         -2.0667659007        4.4692978134        0.6224726524
 H         -1.1939208471        2.1796269933        0.6805953363
 H         -0.0020123751        0.4516491368       -1.0682286639
 H          1.5288134351       -2.4221675832       -0.1806404509
 H          2.7818932999       -4.4306218859       -0.8148639164
 H          5.1685073018       -4.2358541180       -1.4559464496
 H          6.2443760607       -2.0481203441       -1.4896234283
 H          6.3791394352        1.5434435445       -2.3078840709
 H          6.5104811043       -0.1923972291       -2.5379286916
 H          5.0357980664        0.6471221469       -3.0180818878
 H          5.8933917001        0.1399668740        1.1680564435
 H          7.0542230654       -0.4375894895       -0.0273439857
 H          6.8531385953        1.2956801708        0.2391803239
 H          5.7650186462        3.0193491592       -0.8838545815
 H          4.3371123593        4.8997455847       -0.2763755696
 H          2.0158390181        4.4889362737        0.4928954594
 H          1.1668406714        2.1934718731        0.6110128471
 H          0.0036322254       -1.4278083081        3.5440132736
 H         -1.5081875408       -2.4170861433       -0.2188800919
 H         -2.7376760527       -4.4217616722       -0.9103917673
 H         -5.1194116646       -4.2329095233       -1.5715083125
 H         -6.2160942577       -2.0551426404       -1.5607420034
