85
 energy: -139.081060997318 gnorm: 0.000109162221 xtb: 6.7.1 (edcfbbe)
C           -8.68938241389153        0.22445286617201       -1.22512576331463
C           -7.82272357975294        0.00882020748232        0.01075150693916
C           -8.67568271513554       -0.20652807968522        1.25632122218735
C           -6.86757858514432       -1.19431610119972       -0.20071703646054
O           -7.28395207896093       -2.33066338989974       -0.39837947199039
C           -5.53703158219483       -0.69605564022903       -0.11999354427975
C           -4.32914671574846       -1.38494131617029       -0.23299750033286
C           -3.13598658466566       -0.70604785965014       -0.10301088796663
C           -1.87371770298076       -1.44851002589924       -0.11012578516874
C           -0.89147248041174       -1.19271405188099        0.85186206343699
C            0.32592877639031       -1.83526740497783        0.80699315969540
C            0.59005843073474       -2.75506912339738       -0.20276861958322
N            1.87651684986788       -3.34927725950493       -0.28228532237669
C            2.96510902649941       -2.57565500165673       -0.66162090663155
C            2.81924860653509       -1.26607286276048       -1.10832413619812
C            3.92668994756110       -0.51900854290064       -1.47045795414324
C            5.19458071147910       -1.06500412549770       -1.39671534285836
C            5.35531240702411       -2.37680970220886       -0.97884072960450
C            4.25310188788913       -3.13340496415468       -0.62255940334090
O            4.47333272198810       -4.43037399090333       -0.24349225329499
C            3.38121245304057       -5.19653647452801        0.07151687068168
C            3.60937242769794       -6.51768978339243        0.41243335456903
C            2.54969701842130       -7.33862945048604        0.76547569232897
C            1.26387732257675       -6.82962685192906        0.78627831147994
C            1.02683104142254       -5.50911348521027        0.44488799681028
C            2.07662625255175       -4.67697371178504        0.07009019711498
C           -0.39583744461008       -3.06337793264107       -1.13254835390963
C           -1.61615509705242       -2.41997279655137       -1.07914974296472
C           -3.13437934112197        0.71734697546132        0.09939040615611
C           -1.87066540941280        1.45721552261136        0.10431637507570
C           -1.61098715018082        2.42985658783129        1.07167214575257
C           -0.38901647392799        3.07011828777734        1.12442414412421
C            0.59658857531637        2.75675173231242        0.19615088022132
N            1.88552960664407        3.34604589128954        0.27709710496671
C            2.09468319514938        4.66722086392508       -0.09307498284616
C            1.05153635612745        5.49799034019853       -0.48874923647062
C            1.29734722222498        6.81204552109667       -0.84837517330197
C            2.58530652370834        7.31553469410474       -0.82480970730818
C            3.63839575659463        6.49575705458658       -0.44985730951092
C            3.40153354524091        5.18105059519068       -0.09056628674534
O            4.48714912136088        4.41507946132335        0.24679919007030
C            4.25764190937536        3.12455981710515        0.64224922285557
C            5.35293038584076        2.36811438118282        1.01947745782613
C            5.18229139457512        1.06261487642126        1.45300794105076
C            3.91145265917560        0.52273137013663        1.52093048963880
C            2.81080149717034        1.26976702842096        1.13857410090086
C            2.96686524790803        2.57292762758759        0.67686718200406
C            0.33050721844548        1.83637305504367       -0.81242590643563
C           -0.88889062730390        1.19749560429517       -0.85712336877643
C           -4.32607015261379        1.39815728053204        0.23331869165102
C           -5.53537981314092        0.71106913756599        0.12566061109359
C           -6.86483353604089        1.21119902695771        0.21360089701469
O           -7.27848066596452        2.34835155907371        0.41235827460110
H           -9.31925023979495       -0.64710207926575       -1.39083851975116
H           -9.32181034122200        1.09864164025221       -1.08524331441370
H           -8.06653347902382        0.37945482326433       -2.10469602028363
H           -9.30354286069013        0.66515857563322        1.42885457345218
H           -9.30974575034118       -1.08066104154785        1.12367044061755
H           -8.04309639884254       -0.36141685515691        2.12895353781939
H           -4.34239332705064       -2.45581907145888       -0.37418677082609
H           -1.09485511874622       -0.48875744787898        1.64460584564500
H            1.08521758840182       -1.62928444879965        1.54757679725476
H            1.83116263653029       -0.83817919852320       -1.16761662075856
H            3.79454897504526        0.49643616450706       -1.81003088146677
H            6.05802156261935       -0.48010526324590       -1.66990865086820
H            6.32955568572438       -2.83553722037523       -0.92646266052778
H            4.62396083319961       -6.88208749455587        0.40009665274114
H            2.73529513546229       -8.36762055201786        1.02893343720566
H            0.43478691522640       -7.45815462868550        1.07139588720282
H            0.02378334867100       -5.11378288235998        0.47276415534120
H           -0.19121192392889       -3.78973242116752       -1.90553067610471
H           -2.36950954147309       -2.64026989012184       -1.82066752709236
H           -2.36404870958526        2.65351338324384        1.81246372991114
H           -0.18278978598911        3.79778564430021        1.89573273432075
H            0.04703591012346        5.10637397091093       -0.51808986338711
H            0.47352319189298        7.43986421404289       -1.14985047949508
H            2.77772620729444        8.33946664839139       -1.10270401066965
H            4.65435352448752        6.85619098512367       -0.43416723800820
H            6.32969641850046        2.82183932225371        0.97061263161432
H            6.04047867274536        0.47782293270377        1.74251427348057
H            3.77169684097161       -0.48783592082681        1.87184259687551
H            1.82023757933093        0.84699537318065        1.19330099346176
H            1.08969261279234        1.62691736517956       -1.55215582917321
H           -1.09389725199736        0.49311405252446       -1.64905105803269
H           -4.33724407907834        2.46906234961979        0.37443730224149
