85
 energy: -139.140495685953 gnorm: 0.000126902208 xtb: 6.7.1 (edcfbbe)
C           -8.53637923419200        0.09546566033959       -1.25617115108491
C           -7.66501544126176        0.00174040714496       -0.00003025945293
C           -8.53612705756191       -0.09162360766273        1.25631779481822
C           -6.73366465525971       -1.20950388218707       -0.08969680529859
O           -7.07807334366425       -2.36116694216176       -0.17783079823854
C           -5.35098445672039       -0.69678028420215       -0.05028365293508
C           -4.16093939706708       -1.39922103132712       -0.09407595015400
C           -2.95514518764772       -0.70318144600767       -0.03927396241817
C           -1.68980901156298       -1.45576669493272       -0.05574445448879
C           -0.68734813890108       -1.19461066587186        0.87773558664643
C            0.52381900364385       -1.84942982469120        0.80617178992780
C            0.75743908490384       -2.78249262389667       -0.20023398692794
N            2.02705219928458       -3.38986118845304       -0.30622273460634
C            3.12970291261044       -2.62064229440879       -0.68248234042701
C            3.00014402125172       -1.30310257102101       -1.10089705867048
C            4.11453056108557       -0.56455712095589       -1.46886268044407
C            5.37030493646761       -1.13390299047555       -1.43165617695746
C            5.51167077877361       -2.45938482169655       -1.04624794912751
C            4.40402527128849       -3.20210255343166       -0.68352676712316
O            4.61086081342259       -4.51615507928424       -0.34213926334683
C            3.50351980964533       -5.28069143171762       -0.06368544758081
C            3.71482678486468       -6.61929611253655        0.20628317606225
C            2.64746857149328       -7.44610126763739        0.52735420915374
C            1.37273145132786       -6.92156366832789        0.58667403931080
C            1.15372393929340       -5.57958577545504        0.31299665250499
C            2.20871036021004       -4.74510974267016       -0.03065672337010
C           -0.25590750049385       -3.08747482819260       -1.10201727456394
C           -1.46948138004809       -2.43201281642052       -1.02430757810928
C           -2.95483640169921        0.70460451749841        0.03912555867911
C           -1.68916473865646        1.45662621816438        0.05563203980952
C           -1.46845919822676        2.43282809667082        1.02415398683426
C           -0.25458999370268        3.08774111519298        1.10190696338076
C            0.75867900292130        2.78222340882854        0.20022326358042
N            2.02858868558055        3.38898010729575        0.30629303922752
C            2.21102175840349        4.74401788982521        0.03023459631991
C            1.15652856593476        5.57892718308147       -0.31387320769740
C            1.37630179350493        6.92067963261875       -0.58804529861339
C            2.65131685149716        7.44454483517909       -0.52876189015493
C            3.71818474932379        6.61729239515518       -0.20720584026558
C            3.50611613259138        5.27890996753318        0.06326040948305
O            4.61299550578527        4.51387951459020        0.34220661014736
C            4.40538739930933        3.20007239096195        0.68407838325173
C            5.51255905883103        2.45688708430480        1.04728390205714
C            5.37039699783423        1.13162614344804        1.43316451506692
C            4.11430841429811        0.56297259242316        1.47034029520349
C            3.00039011039892        1.30198890901862        1.10189942028665
C            3.13074859644365        2.61930548147905        0.68303368612648
C            0.52470378566275        1.84922167248111       -0.80615174911498
C           -0.68676559560212        1.19496606004322       -0.87777270881341
C           -4.16032580110684        1.40117434920976        0.09389212947000
C           -5.35067901183723        0.69925587564523        0.05009082815844
C           -6.73313426935823        1.21258718902042        0.08949341895019
O           -7.07703880908103        2.36441274317347        0.17750745375938
H           -9.16290634445800       -0.78980333380406       -1.33496296183460
H           -9.16671808567660        0.97975993423582       -1.20033148205256
H           -7.91540504656901        0.16482982568908       -2.14796870812538
H           -9.16227428170774        0.79390183606929        1.33524593996806
H           -9.16684048492721       -0.97566108523326        1.20062977930810
H           -7.91497495156815       -0.16123307432087        2.14797292846030
H           -4.16982992017410       -2.47753084287759       -0.14781860272414
H           -0.86460652258735       -0.47926582957359        1.66683532150845
H            1.30427644404133       -1.63836117959760        1.52193831213271
H            2.01992698368201       -0.85356448373862       -1.13553228954053
H            3.99223951504894        0.46082312186474       -1.78162274370173
H            6.24046826894184       -0.55990670933926       -1.70708650117406
H            6.47763775079735       -2.93797094015427       -1.02401980701940
H            4.72464180934887       -6.99534939216647        0.16804817301437
H            2.82289295525348       -8.48939108273275        0.73679893078131
H            0.53531554001783       -7.54932855448929        0.84966666655846
H            0.15538179663094       -5.17535161644145        0.37683880031889
H           -0.07921159970733       -3.82216732649937       -1.87343094867018
H           -2.24176537421681       -2.64765216002282       -1.74809806379396
H           -2.24069210874955        2.64886063353412        1.74788145688023
H           -0.07760874593448        3.82240979897957        1.87327783048552
H            0.15797725058479        5.17520068430658       -0.37767255839002
H            0.53926391016318        7.54879784899644       -0.85139765034415
H            2.82733727494214        8.48765465671895       -0.73860304414637
H            4.72819535273013        6.99282013293101       -0.16897060759507
H            6.47879334217909        2.93493288400348        1.02504981896520
H            6.24019864105666        0.55725799283309        1.70896162466546
H            3.99140537177136       -0.46223211317006        1.78343755306787
H            2.01991842712814        0.85300222270935        1.13650533033929
H            1.30511747337107        1.63775213750831       -1.52184806550445
H           -0.86430223810595        0.47967179570668       -1.66685483067702
H           -4.16874568750988        2.47948804339413        0.14762936061956
