  85
       -139.07779248
 C         -8.6915825140        0.2462915805       -1.2127682547
 C         -7.8202908989        0.0135888014        0.0167527438
 C         -8.6691460317       -0.2169779814        1.2626390225
 C         -6.8693985820       -1.1888846529       -0.2131126460
 O         -7.2823836919       -2.3221900813       -0.4240438123
 C         -5.5349916936       -0.6929105005       -0.1296306627
 C         -4.3306420232       -1.3817301413       -0.2536266323
 C         -3.1336014257       -0.7076475835       -0.1142006479
 C         -1.8769283444       -1.4548285559       -0.1165063865
 C         -0.8888597588       -1.1910974199        0.8396532206
 C          0.3264188830       -1.8358810158        0.7976104844
 C          0.5858150714       -2.7684058180       -0.2027524765
 N          1.8732478930       -3.3599166785       -0.2822915089
 C          2.9597221513       -2.5813882084       -0.6563325074
 C          2.8094578163       -1.2730159314       -1.1063350385
 C          3.9148991630       -0.5203035712       -1.4616952026
 C          5.1857845379       -1.0586026427       -1.3776455474
 C          5.3513285377       -2.3691171619       -0.9582048298
 C          4.2508142613       -3.1321289862       -0.6096405101
 O          4.4751457381       -4.4278989411       -0.2309793470
 C          3.3852272118       -5.2008268392        0.0733213416
 C          3.6183657167       -6.5224582072        0.4098387031
 C          2.5609466566       -7.3498071455        0.7536107423
 C          1.2723315943       -6.8467328915        0.7707725573
 C          1.0303018002       -5.5262540773        0.4339605842
 C          2.0778852366       -4.6873936992        0.0665494047
 C         -0.4059419149       -3.0874690516       -1.1235854987
 C         -1.6244463749       -2.4416066354       -1.0731455493
 C         -3.1295498085        0.7148900442        0.1010888142
 C         -1.8699410530        1.4567684222        0.0994913934
 C         -1.6148904173        2.4460211479        1.0531951409
 C         -0.3948664788        3.0885760437        1.1018642187
 C          0.5965209553        2.7625552959        0.1830568699
 N          1.8858345798        3.3504978320        0.2645428950
 C          2.0966242329        4.6724374988       -0.0998616314
 C          1.0560008542        5.5036692244       -0.5023364209
 C          1.3039980574        6.8185913360       -0.8562766966
 C          2.5916017114        7.3232369829       -0.8207562443
 C          3.6423204106        6.5033733283       -0.4401250053
 C          3.4033626481        5.1873593227       -0.0863972083
 O          4.4865186886        4.4209777703        0.2560911445
 C          4.2552472050        3.1299234041        0.6469793106
 C          5.3484875364        2.3736079391        1.0310331206
 C          5.1753497487        1.0675265039        1.4612347692
 C          3.9039349178        0.5270167525        1.5196555771
 C          2.8056166111        1.2735818981        1.1307333820
 C          2.9641099198        2.5776180944        0.6712003122
 C          0.3353901408        1.8276989532       -0.8142639832
 C         -0.8822944229        1.1868752513       -0.8552735121
 C         -4.3226428350        1.3945264162        0.2478625262
 C         -5.5307730612        0.7110328836        0.1341259617
 C         -6.8621589738        1.2127604547        0.2314744011
 O         -7.2677132976        2.3480883518        0.4456263328
 H         -9.3204076257       -0.6239614299       -1.3893486185
 H         -9.3248524679        1.1174554704       -1.0579413279
 H         -8.0717932009        0.4154051119       -2.0919756574
 H         -9.2976006298        0.6518305587        1.4471950209
 H         -9.3021275192       -1.0907775060        1.1223637323
 H         -8.0333442065       -0.3806994230        2.1313883649
 H         -4.3469055602       -2.4511186634       -0.4056587334
 H         -1.0886145601       -0.4794129253        1.6263484428
 H          1.0887708921       -1.6235401052        1.5333751554
 H          1.8192349804       -0.8515312445       -1.1739134407
 H          3.7793243599        0.4934366581       -1.8049756799
 H          6.0475615954       -0.4685644106       -1.6449385641
 H          6.3279166780       -2.8219471934       -0.8988496124
 H          4.6348911158       -6.8814818451        0.4013368839
 H          2.7499436585       -8.3791050495        1.0133960764
 H          0.4452808996       -7.4805355273        1.0499580523
 H          0.0255529451       -5.1354085077        0.4600871389
 H         -0.2056044739       -3.8226721903       -1.8893815214
 H         -2.3802703716       -2.6698571154       -1.8096377130
 H         -2.3704606187        2.6787085118        1.7885161492
 H         -0.1927009517        3.8269458034        1.8640925094
 H          0.0522130338        5.1112742638       -0.5415412118
 H          0.4823763035        7.4468451944       -1.1627896040
 H          2.7850559270        8.3482548565       -1.0938585180
 H          4.6579051640        6.8642799468       -0.4153172571
 H          6.3250912686        2.8284714798        0.9906736177
 H          6.0314747897        0.4826896490        1.7566386227
 H          3.7624135889       -0.4839499447        1.8686742973
 H          1.8151181279        0.8500806220        1.1784470858
 H          1.0975638162        1.6104605133       -1.5487544071
 H         -1.0838955935        0.4740135823       -1.6404147836
 H         -4.3331476985        2.4640245949        0.3995495182
