131
 energy: -174.371928911531 gnorm: 0.000157201263 xtb: 6.7.1 (edcfbbe)
C           -1.04511107148535        7.31231701372314        2.18421037679910
C           -2.46949577772180        6.74814303390664        2.08072087720202
C           -3.29942339597635        7.70644899135331        1.22227187709838
C           -3.10404122788819        6.68213301410690        3.47737888070529
C           -2.40823158443741        5.34542864995622        1.49884032583110
C           -1.64378616940288        4.36896740722168        2.13635426384419
C           -1.54673494896783        3.08723171573314        1.64162587317204
C           -2.21920645418087        2.72614263170944        0.47479632775853
N           -2.08286218432536        1.43528870850085       -0.04873341712247
C           -3.17892660722551        0.75670732232474       -0.57053311120373
C           -3.03245702682816       -0.18014435386454       -1.59391797746171
C           -4.12591947380233       -0.85865268947150       -2.09423273100830
C           -5.41048665289870       -0.62936880295754       -1.61361159967738
C           -6.64550020529679       -1.31985416162696       -2.16949762513328
C           -7.39058184146715       -2.03923486581675       -1.03637226805025
C           -6.30797798335630       -2.35131028925443       -3.24960470064761
C           -7.56212430115271       -0.25707050031375       -2.79326412333081
C           -5.54621500133776        0.30786058298243       -0.58976142836397
C           -4.46333475017105        0.98228017047681       -0.07041864955202
C           -0.81059362957801        0.84992124223000       -0.04946336868033
C           -0.66386229184548       -0.51980273426144        0.22428341734213
C            0.59049150876235       -1.11919453297362        0.15603521039932
C            1.74899460383173       -0.35337160915820       -0.08739728700007
C            1.58315849695144        1.03509168774654       -0.26812876447649
C            0.31944523171287        1.62075635523368       -0.31170675608485
N            2.71444056443516        1.82090000654320       -0.47928080165175
C            2.74126387501235        3.14155585208963       -0.06033605370051
C            2.03026010318050        3.54560392688006        1.07521078060271
C            2.09208533356521        4.85055000493422        1.50686519412996
C            2.87991862237198        5.76890869596722        0.82793323890924
C            3.61323185609203        5.36591880132628       -0.27784194679132
C            3.55914615905610        4.06291357246920       -0.73913917825664
C            4.26763186111896        3.56155985201353       -1.97665465487972
C            3.22866057913721        3.47398999988783       -3.11766393441163
C            5.38907165313112        4.49718074717175       -2.42854191892219
C            4.75341406925517        2.15366969305205       -1.68438172548129
C            5.97191559285477        1.66428684985072       -2.13797704355234
C            6.29072833585098        0.32343659752863       -1.96717822503823
C            5.40519879625754       -0.53661637429893       -1.35728518734346
C            4.18306482872332       -0.09513669556521       -0.82766247517053
C            3.88783466968890        1.28343626719546       -1.01202637074122
B            3.11793295702976       -0.99104170053189       -0.17042559784210
C            3.16133772308963       -2.46253364997252        0.26867347438176
C            4.33320613007947       -3.19650844369096        0.50585043366627
C            4.34841580763399       -4.54206319979684        0.83169253523505
C            5.62759003525419       -5.32208539502264        1.08300177950402
C            5.72811797849798       -6.46171785785763        0.05851070489915
C            6.88557490033999       -4.45823348632560        0.95872582075766
C            5.58619296666421       -5.90442514438021        2.50326764573086
C            3.11740264931589       -5.20038911254103        0.91531287171249
C            1.93181466142086       -4.51354265768304        0.74195188640046
C            1.92832986981676       -3.14626654154609        0.46014503167438
N            0.71596777996148       -2.48266677282294        0.35567367318748
C           -0.49331349352222       -3.21933991692655        0.48158799039431
C           -1.25428332382270       -3.48513967746937       -0.64754579016026
C           -2.46195638708621       -4.14936312586481       -0.53610410230949
C           -2.94372155358548       -4.56758019089263        0.69884870787234
C           -4.27959094284456       -5.27185698771266        0.86989157108955
C           -4.99561415133251       -5.50607316437582       -0.46254088142824
C           -5.17988630416229       -4.39798507288066        1.75558700235620
C           -4.05523136528649       -6.63625991070406        1.53645221040738
C           -2.16092139236530       -4.30258435625657        1.82118519959296
C           -0.95503050338859       -3.63813003167538        1.72301595859883
C           -2.99964150788775        3.68740533359809       -0.16186069578603
C           -3.08857422836113        4.96936658314770        0.34590121335608
H           -0.44161343371067        6.73774222227724        2.88079149972013
H           -1.07424878061023        8.34251436579381        2.53308933798735
H           -0.55796202127893        7.28849160513962        1.21153608871394
H           -2.88082731534786        7.79584044533189        0.22245992208392
H           -3.29840562386297        8.69483962455194        1.67763039658454
H           -4.33219198323274        7.37369584320798        1.14889558408514
H           -2.52700614941693        6.04658667011958        4.14361197131515
H           -3.15566333847937        7.67738759824667        3.91396173831074
H           -4.11315796830212        6.28015263874345        3.41321676527931
H           -1.11526926200342        4.60558601958191        3.04728773966038
H           -0.95614955510526        2.34601753976884        2.16032006095407
H           -2.05254291052806       -0.36524885555530       -2.00841416922998
H           -3.95525515658216       -1.56759106392750       -2.88808376338202
H           -6.74223399468268       -2.77291472154981       -0.56306002187618
H           -7.72571058108676       -1.34104287899546       -0.27462790145818
H           -8.26365231046883       -2.55527539883692       -1.43062133228392
H           -5.65079663318799       -3.12617946125521       -2.86141438205498
H           -5.83218793212729       -1.87975082681828       -4.10619166578552
H           -7.22276322231429       -2.82896233511841       -3.59497775599163
H           -7.04039639771989        0.26791918002835       -3.59083245995502
H           -7.87613839946980        0.47431084408892       -2.05354799625519
H           -8.45115358729201       -0.72513591675382       -3.21100512084392
H           -6.52127669583334        0.51942883167432       -0.17694212154647
H           -4.60391617827487        1.69098226297575        0.73268806480261
H           -1.54617587699116       -1.08979360728533        0.46994199135897
H            0.20573998364350        2.66741631794536       -0.55420674197347
H            1.45694206655739        2.81611517787775        1.62545175859976
H            1.54059102078873        5.15167106761607        2.38399591508192
H            2.93180428090362        6.79348590454710        1.16356164090173
H            4.22833767678500        6.09452874148175       -0.78083324100838
H            3.69871242838591        3.07963076113478       -4.01615532577677
H            2.82731052598281        4.46234662842969       -3.33424372956273
H            2.40435770912870        2.81849893197294       -2.84693256955983
H            5.85099785682268        4.11992460697536       -3.33701931843793
H            6.14912088786556        4.59376269582847       -1.65639228513236
H            4.98850703239580        5.48154776337594       -2.65803827687758
H            6.67338479029959        2.30783773102937       -2.64154456202505
H            7.23774911777456       -0.04547194030906       -2.33637478533566
H            5.65054117442159       -1.58446908246869       -1.29081503251331
H            5.25960253556570       -2.65307676412331        0.44327072229874
H            5.73352321747556       -6.05777256623804       -0.95186570139762
H            6.64735575106710       -7.02393821305310        0.21141622506541
H            4.89066061028999       -7.14841993248438        0.14582902585345
H            7.76530657558005       -5.06755915067880        1.15826833624462
H            6.98128552986761       -4.04881302396140       -0.04409618488042
H            6.87184557886841       -3.64110415815727        1.67610554848895
H            5.50106092051090       -5.10274764504464        3.23414494513315
H            6.49758103895662       -6.46316371402362        2.70733536871363
H            4.74005194250667       -6.57383804736474        2.63204864346372
H            3.07021421071930       -6.25731531699724        1.12816231771308
H            1.00065512547751       -5.05463863297391        0.82367828785115
H           -0.89698848559797       -3.16093940871752       -1.61379507389813
H           -3.02345180811361       -4.33229171663620       -1.43691884243956
H           -5.20638166728151       -4.56391009577492       -0.96266413712185
H           -5.94345566852431       -6.00921777878248       -0.28235569088599
H           -4.40130402789596       -6.13507669582277       -1.12146008401813
H           -6.16720088499557       -4.84587171623555        1.84613113353258
H           -5.28655351473500       -3.40580222262115        1.32069824054557
H           -4.76436267773256       -4.28645390145243        2.75326082491429
H           -3.39760697565980       -7.24998457422449        0.92428776668201
H           -3.60551422576084       -6.53097819347503        2.51964603414349
H           -5.00405464134618       -7.15583206893736        1.65125913558420
H           -2.49738094435514       -4.60934674430936        2.79972451509158
H           -0.36703083372975       -3.43292509594393        2.60555803270431
H           -3.52975152527311        3.42607955852414       -1.06638221707509
H           -3.69782965405086        5.68027390506794       -0.18798129532236
