131
 energy: -174.371923505668 gnorm: 0.000060814443 xtb: 6.7.1 (edcfbbe)
C           -1.13000664911479        7.31537321304774        2.16288351721280
C           -2.54809860312354        6.73329285056210        2.07287299074126
C           -3.39583657053673        7.67664298342126        1.21525321513280
C           -3.17171804945332        6.66748964408697        3.47444027627011
C           -2.47349373454191        5.32829918506842        1.49805539979763
C           -1.69388324304121        4.36434975239271        2.13623898364570
C           -1.58319998713771        3.08163579363643        1.64687810876486
C           -2.25660532497142        2.70686670814829        0.48493352900956
N           -2.10609567675569        1.41587928330842       -0.03439356732545
C           -3.19651283201287        0.72195707781615       -0.54792188669387
C           -3.04482614462993       -0.21369532142413       -1.57159013941442
C           -4.13278665551260       -0.90674069749414       -2.06392426118785
C           -5.41683768449337       -0.69388535890020       -1.57446889284777
C           -6.64659877859541       -1.40139169776105       -2.12048775820093
C           -7.36570491744378       -2.13973857715100       -0.98282067273183
C           -6.30474657561292       -2.42053475371890       -3.21084280856627
C           -7.58843386381660       -0.35088257180134       -2.72723551940833
C           -5.55764206911730        0.24176761953376       -0.54985246769746
C           -4.48016024255875        0.93096661965551       -0.03879771808364
C           -0.82658218872197        0.84692083541142       -0.04066871613981
C           -0.66078053830282       -0.52089677572392        0.23172954778709
C            0.60093910746884       -1.10395506361939        0.15699221421727
C            1.74825056483153       -0.32262093383001       -0.09002585002772
C            1.56366174980454        1.06354147112219       -0.26954488540408
C            0.29220967660623        1.63248500019673       -0.30791627903820
N            2.68381053748866        1.86411159182244       -0.48500688658582
C            2.69549009723769        3.18470510608497       -0.06514216921495
C            1.98382669151212        3.57873287621900        1.07347601676981
C            2.03049379909591        4.88404390487029        1.50588709646753
C            2.80366616267290        5.81299438326473        0.82454396455311
C            3.53800048833946        5.42018833972155       -0.28420898476960
C            3.49907531439874        4.11688078348083       -0.74622936247641
C            4.20931053721649        3.62567049989257       -1.98687093584639
C            3.16722238972349        3.52711651216053       -3.12410771111295
C            5.31769263758650        4.57549343350520       -2.44141509438796
C            4.71357001795607        2.22350150536684       -1.69820507600348
C            5.93603485200413        1.74956077551835       -2.15761872292152
C            6.27259463037657        0.41277142867650       -1.98877055592523
C            5.40110764061163       -0.45851477369499       -1.37468247028009
C            4.17583211026779       -0.03255759535258       -0.83954870425787
C            3.86201953303790        1.34205959876587       -1.02263883779043
B            3.12525649619888       -0.94196296382510       -0.17778823305089
C            3.18986974279482       -2.41233876124789        0.26204433174964
C            4.37248709619974       -3.12939477092872        0.49760715431676
C            4.40731920968539       -4.47459443858825        0.82330142377983
C            5.69763305613314       -5.23623476968451        1.07393855663649
C            5.81648435233762       -6.37060862476887        0.04558946177011
C            6.94267109603365       -4.35312952914513        0.95471345049598
C            5.66314485818820       -5.82416752578789        2.49209325418108
C            3.18591902688414       -5.15063869908532        0.90651106540225
C            1.99040007324997       -4.48078687869545        0.73479845258924
C            1.96680492069900       -3.11320434301518        0.45538107349956
N            0.74508224954486       -2.46599053681960        0.35411848462235
C           -0.45325233131312       -3.22041679333355        0.47765861886875
C           -1.21438213665536       -3.48659601438994       -0.65136998815475
C           -2.40915819965568       -4.17413510681158       -0.54296917777321
C           -2.87761853780745       -4.61634748263900        0.68877073483889
C           -4.19700265625688       -5.35188693426046        0.85611488410752
C           -4.91276762831254       -5.58596292857783       -0.47649656690667
C           -5.11323936925349       -4.50978247643315        1.75603264230941
C           -3.93924147640899       -6.71902275199120        1.50485839888040
C           -2.09626066031513       -4.34793790870193        1.81131156842759
C           -0.90331338992755       -3.66010751975956        1.71621100990427
C           -3.05275637128483        3.65517183295306       -0.15173671264009
C           -3.15526020304388        4.93824604773715        0.35060483025902
H           -0.51422861446609        6.75150871904253        2.85743825696680
H           -1.16915960110223        8.34680290319875        2.50711966932406
H           -0.64991287291182        7.29284826763583        1.18667711199860
H           -2.98519528101178        7.76622028505995        0.21216321124132
H           -3.40417301098432        8.66729266937812        1.66560693326264
H           -4.42479572466215        7.33054932769075        1.15062063273866
H           -2.58213547480825        6.04301685340221        4.14014793822525
H           -3.23245092414562        7.66455783418653        3.90568204513052
H           -4.17624990693801        6.25281234596797        3.41990817406693
H           -1.16384353445138        4.61178582145680        3.04339773048231
H           -0.98083199251872        2.35029992305973        2.16602289026398
H           -2.06544332976337       -0.38621077896005       -1.99271896720760
H           -3.95843952777043       -1.61393393349796       -2.85852783712055
H           -6.70086605119222       -2.86857788472810       -0.52513876151724
H           -7.69850378377224       -1.45210790431862       -0.21048988141564
H           -8.23756712620117       -2.66414714213169       -1.36861350607218
H           -5.63293221972025       -3.18862778837022       -2.83444903381487
H           -5.84393961601240       -1.93622423679305       -4.06852177568547
H           -7.21591103640854       -2.90892609106349       -3.55073806768230
H           -7.08436826761290        0.18893723337262       -3.52625467427051
H           -7.90827574386697        0.36953981751740       -1.97935873322157
H           -8.47310247545975       -0.83200348007168       -3.13936462836861
H           -6.53239447504990        0.44025673144874       -0.12984816403463
H           -4.62431612058819        1.63845609613537        0.76475121300666
H           -1.53418507606124       -1.10273104294905        0.48153237996305
H            0.16389611596056        2.67753860136829       -0.55003383171530
H            1.42224022004756        2.84143243470448        1.62538044012164
H            1.47872506218871        5.17732245716926        2.38549636651520
H            2.84344117157999        6.83797333954757        1.16058645886900
H            4.14181835622953        6.15701526425060       -0.78890222726790
H            3.63877676750885        3.14064926413848       -4.02522384356060
H            2.75246514974366        4.51072480495843       -3.33704776800625
H            2.35240998325800        2.86060846971037       -2.85153646271108
H            5.78068734467931        4.20531972640040       -3.35225309315784
H            6.07943671361027        4.67988808238725       -1.67195378047455
H            4.90453368074950        5.55536345739977       -2.66775516940090
H            6.62705155247404        2.40201507135934       -2.66415920866460
H            7.22244676044438        0.05603002407973       -2.36262059360839
H            5.65997524609980       -1.50319739213553       -1.30915692912481
H            5.29085190810502       -2.57257774635356        0.43372168210781
H            5.81897495298893       -5.96291171635227       -0.96329078855469
H            6.74293360781857       -6.92075011345521        0.19889164656086
H            4.98819434139765       -7.06893180058746        0.12820527366181
H            7.83103152497935       -4.94950037530222        1.15513716434541
H            7.03476162166526       -3.94000103136965       -0.04691560403531
H            6.91465597829110       -3.53791192399812        1.67386488292170
H            5.56521801034467       -5.02645405617573        3.22569989767289
H            6.58253619058913       -6.36995687865506        2.69531074519145
H            4.82702137118525       -6.50664974097938        2.61755395669419
H            3.15404407948845       -6.20845633008957        1.11777851268051
H            1.06751855145225       -5.03586954155903        0.81604513048495
H           -0.86675335328780       -3.14543974501000       -1.61531212204459
H           -2.97076793994126       -4.35711505168717       -1.44370423637167
H           -5.14752386435241       -4.64281929279175       -0.96393198706871
H           -5.84785570687407       -6.11338855999333       -0.29917147698680
H           -4.30659008647936       -6.19260096452924       -1.14550318571360
H           -6.09035917751241       -4.98012975990625        1.84321247604334
H           -5.24265924105789       -3.51437190685511        1.33497940936538
H           -4.69718642497382       -4.40275221253371        2.75397281575762
H           -3.27063548458699       -7.31023256793560        0.88252083329723
H           -3.48774126857727       -6.61570080569530        2.48745096726184
H           -4.87565789112048       -7.26117937960452        1.61705602480893
H           -2.42332243866699       -4.67150914774869        2.78762624199463
H           -0.31601575304220       -3.45373035350939        2.59895278855929
H           -3.58428435207181        3.38300168512567       -1.05222431525937
H           -3.77628134036234        5.63890748953718       -0.18327232281003
