  131
       -174.36962418
 C         -1.0222490994        7.2875731374        2.2346095875
 C         -2.4505966591        6.7415470711        2.0939536409
 C         -3.2476642888        7.7153250828        1.2218011844
 C         -3.1182848970        6.6749269115        3.4750966839
 C         -2.3941375270        5.3412950284        1.5058246619
 C         -1.6417172652        4.3563217782        2.1450021532
 C         -1.5497155286        3.0764058967        1.6449348338
 C         -2.2176441344        2.7249899969        0.4723756998
 N         -2.0849479074        1.4360015673       -0.0563885411
 C         -3.1821718383        0.7600207113       -0.5769361212
 C         -3.0367943738       -0.1844018093       -1.5940957833
 C         -4.1312429457       -0.8627097925       -2.0918334566
 C         -5.4161817669       -0.6261679624       -1.6152377619
 C         -6.6519314080       -1.3171270758       -2.1684119857
 C         -7.4040628299       -2.0223703175       -1.0310610211
 C         -6.3148689625       -2.3601963747       -3.2373774709
 C         -7.5613543205       -0.2559987749       -2.8055071837
 C         -5.5512014689        0.3199562185       -0.5992213522
 C         -4.4674250113        0.9944801033       -0.0822625969
 C         -0.8138117436        0.8483956086       -0.0554231625
 C         -0.6674724200       -0.5205218334        0.2197716897
 C          0.5859073814       -1.1195767177        0.1509168857
 C          1.7453099779       -0.3529443660       -0.0913289802
 C          1.5794407906        1.0359931187       -0.2748233895
 C          0.3165548650        1.6200316888       -0.3197097782
 N          2.7109406364        1.8217770643       -0.4869104986
 C          2.7352708688        3.1447580081       -0.0746309671
 C          2.0216808266        3.5545786228        1.0573852970
 C          2.0809956581        4.8619134974        1.4817792970
 C          2.8687525817        5.7778215367        0.7989958865
 C          3.6051315719        5.3693435955       -0.3027009918
 C          3.5539362603        4.0636150212       -0.7564057368
 C          4.2668406325        3.5557429574       -1.9885641334
 C          3.2314138637        3.4573079484       -3.1320774946
 C          5.3872152453        4.4907508521       -2.4442272086
 C          4.7543814225        2.1509516156       -1.6853233411
 C          5.9762209451        1.6613220444       -2.1291581800
 C          6.2951563826        0.3211187091       -1.9523739886
 C          5.4060677887       -0.5377443751       -1.3462770742
 C          4.1810356089       -0.0950721832       -0.8237965330
 C          3.8857832912        1.2830112026       -1.0132329062
 B          3.1138485902       -0.9893416638       -0.1691807908
 C          3.1577838871       -2.4597110856        0.2736353859
 C          4.3300974613       -3.1900102310        0.5184489785
 C          4.3469047449       -4.5357485093        0.8443944884
 C          5.6263100946       -5.3109756995        1.1086148021
 C          5.7372044946       -6.4582324278        0.0938389116
 C          6.8830030971       -4.4449965569        0.9859502073
 C          5.5763291022       -5.8824074000        2.5330525410
 C          3.1172156022       -5.1973798994        0.9173848764
 C          1.9308053689       -4.5138450842        0.7364842261
 C          1.9250005871       -3.1455028170        0.4584559152
 N          0.7124212172       -2.4840664149        0.3492477424
 C         -0.4962388108       -3.2211740680        0.4721196948
 C         -1.2654678210       -3.4702907728       -0.6556308117
 C         -2.4728290995       -4.1350114024       -0.5457833550
 C         -2.9468923205       -4.5707849606        0.6862813423
 C         -4.2820004919       -5.2766696717        0.8564261796
 C         -5.0061539396       -5.4940036701       -0.4743763881
 C         -5.1769799083       -4.4135182932        1.7577846223
 C         -4.0548331810       -6.6493616928        1.5047692301
 C         -2.1561263630       -4.3227451552        1.8069966220
 C         -0.9504118947       -3.6580196646        1.7104177444
 C         -2.9877187069        3.6942741006       -0.1652032657
 C         -3.0698087743        4.9748918501        0.3468337281
 H         -0.4468307123        6.7108035520        2.9529657214
 H         -1.0478482133        8.3204530412        2.5757213941
 H         -0.5077760763        7.2506769977        1.2764354222
 H         -2.8068326287        7.8008850757        0.2311909805
 H         -3.2408822290        8.7021729155        1.6804193436
 H         -4.2838847219        7.3994318586        1.1258275810
 H         -2.5686352480        6.0217913856        4.1476646798
 H         -3.1608900372        7.6668867242        3.9200284914
 H         -4.1331958467        6.2930244413        3.3842503365
 H         -1.1195458100        4.5848026936        3.0615698536
 H         -0.9673031097        2.3286806450        2.1636766542
 H         -2.0568043458       -0.3746606035       -2.0059111631
 H         -3.9614098252       -1.5774849609       -2.8806073405
 H         -6.7620404537       -2.7570861886       -0.5507504212
 H         -7.7357126115       -1.3160664559       -0.2753414761
 H         -8.2800705513       -2.5351019214       -1.4230617065
 H         -5.6582521906       -3.1314683362       -2.8410151641
 H         -5.8386793688       -1.8979247134       -4.0988907227
 H         -7.2301558395       -2.8407998005       -3.5774474847
 H         -7.0325849175        0.2622105080       -3.6028820832
 H         -7.8786371802        0.4810676606       -2.0728383770
 H         -8.4485860583       -0.7246082429       -3.2264031249
 H         -6.5265707221        0.5380880221       -0.1906120563
 H         -4.6075402151        1.7092316193        0.7155243770
 H         -1.5496535762       -1.0898888187        0.4672994146
 H          0.2012902368        2.6661504635       -0.5638903713
 H          1.4480760498        2.8276701340        1.6107880960
 H          1.5272864760        5.1673887234        2.3559511274
 H          2.9181925264        6.8044291993        1.1287616564
 H          4.2205091107        6.0957434339       -0.8086191095
 H          3.7051388468        3.0577283885       -4.0263392755
 H          2.8281217984        4.4430194324       -3.3568044218
 H          2.4080803811        2.8016093770       -2.8589730212
 H          5.8524484001        4.1076378216       -3.3485849017
 H          6.1449395671        4.5948744154       -1.6707574743
 H          4.9849824082        5.4724741439       -2.6820967175
 H          6.6800786310        2.3038608013       -2.6306322572
 H          7.2440579764       -0.0484351791       -2.3158795142
 H          5.6501134337       -1.5857305829       -1.2776641588
 H          5.2552110941       -2.6436657687        0.4627182129
 H          5.7506025480       -6.0620763029       -0.9195240761
 H          6.6560297585       -7.0175867995        0.2589684852
 H          4.9003949903       -7.1459450367        0.1791556669
 H          7.7630112654       -5.0510562350        1.1939781711
 H          6.9830312531       -4.0415252313       -0.0188419299
 H          6.8637458504       -3.6235501947        1.6981566007
 H          5.4876400050       -5.0749128991        3.2570537759
 H          6.4859306368       -6.4403968268        2.7469332500
 H          4.7285504281       -6.5497094772        2.6617837442
 H          3.0713333928       -6.2547731422        1.1283833163
 H          1.0009254443       -5.0582884716        0.8094239520
 H         -0.9142038099       -3.1327858327       -1.6195506025
 H         -3.0402367408       -4.3050783054       -1.4454349564
 H         -5.2200285844       -4.5454393144       -0.9608453629
 H         -5.9529009437       -5.9995041878       -0.2948640701
 H         -4.4158102969       -6.1143276334       -1.1449649296
 H         -6.1620134826       -4.8653621450        1.8535868242
 H         -5.2907644056       -3.4180568238        1.3322283243
 H         -4.7524125669       -4.3089929742        2.7524008099
 H         -3.3980122388       -7.2541332757        0.8828975104
 H         -3.6026082675       -6.5562077411        2.4880390014
 H         -5.0027602931       -7.1716112223        1.6153344314
 H         -2.4865144973       -4.6428564690        2.7833350664
 H         -0.3569613686       -3.4651735473        2.5920857080
 H         -3.5136348758        3.4402729540       -1.0742420161
 H         -3.6696194491        5.6927902872       -0.1883640981
