131
 energy: -174.457466302858 gnorm: 0.000062809407 xtb: 6.7.1 (edcfbbe)
C           -3.62784191601969        5.07001097782481        4.60647514616079
C           -4.72682995982459        4.19172289792148        3.99119927496142
C           -5.80073924460168        5.11317693653531        3.40667663051378
C           -5.37613130555085        3.33072666977025        5.08406305988589
C           -4.10578816384335        3.27973664518250        2.94545575153376
C           -3.07656153409546        2.41497851182835        3.31207145891554
C           -2.47310730418152        1.57843697646888        2.39827194077484
C           -2.87560111992369        1.58026828619992        1.06438149693375
N           -2.22986348666617        0.75813559345438        0.13092551913346
C           -2.96544822306080        0.08473579036460       -0.84345592514289
C           -2.43861803150333       -0.15180391284839       -2.11305310081323
C           -3.18491013726593       -0.80588218583231       -3.06944751320863
C           -4.48418422482000       -1.24325979170814       -2.81935532725378
C           -5.27686521847093       -1.92110733068203       -3.92601251341566
C           -4.52755194209392       -3.17547979388500       -4.39455436741062
C           -5.42889249581107       -0.94076083044270       -5.09809307283693
C           -6.67680500406669       -2.34618681757538       -3.47469231205148
C           -4.99703350576316       -1.00928905568772       -1.54913415268350
C           -4.25624132230286       -0.36502145856052       -0.57675696914301
C           -0.83579674828161        0.66021999916103        0.17822318092897
C           -0.21146241111050       -0.54940518041641       -0.10249440761063
C            1.17902467383995       -0.63416199732395       -0.09154874500531
C            1.96092263177173        0.49032886349015        0.24239053913647
C            1.30135452175494        1.68712191009217        0.58163708369061
C           -0.08198649134511        1.78168788997525        0.51516441641853
N            2.05639544601581        2.79501553747669        0.93375157688686
C            1.56673868543789        3.74205356951417        1.84282974673641
C            0.72255284642854        3.35625069654748        2.88099210307410
C            0.28365641956401        4.28354418340729        3.80305707682105
C            0.70786665591850        5.59764990850922        3.71645444974980
C            1.58133109956374        5.97481673819747        2.71125167717562
C            2.01905923132351        5.06255121173961        1.76368734495950
C            2.94050979667017        5.40071720899575        0.61238079262158
C            2.09247398592816        5.47967590216145       -0.67521924475188
C            3.64839481592259        6.74219694219060        0.80003081197598
C            3.90561824622079        4.23795351083387        0.45846047000387
C            5.23917154532100        4.39941652282036        0.13564321669642
C            6.03381264180308        3.30159826977679       -0.16542317360296
C            5.49491550708001        2.03548426111899       -0.14727965826248
C            4.16856092533538        1.80507902517602        0.23054330789866
C            3.38537975719053        2.93561846104867        0.53946553472587
B            3.47406663198713        0.42171383442312        0.23048648302980
C            4.04922667687134       -1.00179509189556        0.11237209545167
C            5.39059507256485       -1.33911711380836        0.33642479083414
C            5.90016576562665       -2.60941327273483        0.15691531725769
C            7.35761025299295       -2.97010641955726        0.39775588680017
C            7.96800754658721       -3.49348699690599       -0.91017216095839
C            8.19144661486207       -1.77475428100991        0.86713783377443
C            7.43248822505893       -4.05886599697647        1.47742164253019
C            5.00945508036478       -3.59509819024213       -0.27800730885788
C            3.67638457436465       -3.32499449268803       -0.46902251732072
C            3.16389832419351       -2.04016163731191       -0.24913614917918
N            1.80595113814990       -1.82212722107192       -0.39702450245018
C            0.97807247340088       -2.89570212898703       -0.83725264152154
C            0.60434010552272       -2.98407736061766       -2.16845337275625
C           -0.22805828600120       -4.00510404905436       -2.59306021743156
C           -0.70747075020985       -4.96097832377641       -1.70574405462622
C           -1.63971606161614       -6.08579369848790       -2.12589771071944
C           -1.88795840402759       -6.11302579900315       -3.63629029679061
C           -2.98524933810451       -5.88685911173065       -1.41322552823287
C           -1.02997034056434       -7.43615613344226       -1.72391336567644
C           -0.32393905559989       -4.85408244436536       -0.37024753810271
C            0.50588946072365       -3.84031332078653        0.06431837211556
C           -3.91398999645779        2.42575191458305        0.68943332495047
C           -4.51517824755233        3.25551258512326        1.61744164946251
H           -2.89390895991195        4.47097039194696        5.13755191892624
H           -4.06219327698748        5.77595081129816        5.31142987314352
H           -3.11159355043712        5.62880959014342        3.82851752032092
H           -5.38456469576979        5.75545150081365        2.63395994029832
H           -6.20098087699434        5.74908050311109        4.19395009074317
H           -6.62496099594490        4.53968055986599        2.98893216761551
H           -4.64535023780508        2.68684791668645        5.56581119445959
H           -5.82645614429573        3.96535191679269        5.84456740527362
H           -6.15312094889675        2.70149322242329        4.65465588310472
H           -2.73703104124051        2.38149617293341        4.33624223485569
H           -1.68325829661367        0.91060636345031        2.71025261949036
H           -1.44210336423128        0.19116644120352       -2.34890620883825
H           -2.73951569526999       -0.96089319490912       -4.04095710485908
H           -3.53369338984223       -2.92862319995639       -4.75825346307104
H           -4.42931268027125       -3.87909954155389       -3.57056060840876
H           -5.07420586979933       -3.66263335978205       -5.19961367727577
H           -4.46161931532557       -0.65554663443874       -5.50244771769454
H           -5.93940627304629       -0.03824182466265       -4.76849317550807
H           -6.01210850621441       -1.39583138619777       -5.89613044784364
H           -7.26690096443985       -1.48583772822649       -3.16798075767059
H           -6.62434996118554       -3.05442098984224       -2.65082713781868
H           -7.19313864481042       -2.82996209973245       -4.30163246490840
H           -5.99235690156340       -1.33217493083671       -1.29029215881745
H           -4.68268355478980       -0.20422051910814        0.40283979331132
H           -0.82064064866364       -1.41117939612540       -0.32561337892585
H           -0.57989181341391        2.71924167378291        0.71125509263894
H            0.42237247308468        2.32380238414118        2.96672057865252
H           -0.37724939474287        3.97532956894783        4.59856200313708
H            0.36781008473154        6.32776194319236        4.43556058444482
H            1.91447215163987        6.99933971762807        2.67297554708497
H            2.73468596793622        5.67641396813905       -1.53138988461919
H            1.36213176717118        6.28223289856241       -0.59110829095645
H            1.56122220920721        4.54794437329189       -0.85227260480516
H            4.27329539730427        6.96255590158733       -0.06166371352866
H            4.26626293063577        6.73537022096596        1.69537493477900
H            2.91819841883396        7.54388954936330        0.87888526849285
H            5.67535599862821        5.38368416289608        0.08093096358299
H            7.06797119251542        3.45216886392594       -0.44024235488583
H            6.10409073066497        1.19783813457071       -0.44876198395468
H            6.03330551488651       -0.54959679929386        0.68619132968595
H            7.89708094766975       -2.73499427647903       -1.68724681753486
H            9.01761526510310       -3.74065963652062       -0.76320103191779
H            7.45454318220329       -4.38563530027923       -1.25817777124650
H            9.22038187166846       -2.09103787327347        1.02858288653312
H            8.19680292863327       -0.98426155229347        0.12029224639442
H            7.81111583713650       -1.37568577411908        1.80455230611260
H            6.98740179005125       -3.69977719097202        2.40321417395276
H            8.46943370146269       -4.32511850405349        1.67296623988227
H            6.90265117572438       -4.95680140646094        1.17112390769795
H            5.35675613785101       -4.60181399290210       -0.45813624359524
H            3.01880627295261       -4.12168835346827       -0.78471808238354
H            0.96492307611601       -2.24616348534317       -2.86997313782825
H           -0.49795733935399       -4.03935494956386       -3.63546407160947
H           -2.37129106332310       -5.19992439239619       -3.97276690224344
H           -2.54277483587378       -6.94698745468118       -3.88072428519873
H           -0.95604166250752       -6.24662271407504       -4.18107749567953
H           -3.69774936190712       -6.64338395110913       -1.73514635040632
H           -3.39118785695323       -4.90379258771131       -1.64473696333292
H           -2.87370305479944       -5.95935534413342       -0.33470537276739
H           -0.05854786323130       -7.56531414270704       -2.19667527742186
H           -0.89893014512230       -7.51358809411736       -0.64848045411248
H           -1.67965567956932       -8.24787129235454       -2.04403131374315
H           -0.68066682864147       -5.56988210010099        0.35445997854825
H            0.79167240398841       -3.77131706862348        1.10378223300380
H           -4.24463578197050        2.43691929791512       -0.33920264528908
H           -5.31016605779383        3.89837720006242        1.27625127841684
