131
 energy: -174.457928990173 gnorm: 0.000034013051 xtb: 6.7.1 (edcfbbe)
C           -1.11956561889773        7.30558813551912        2.09073918979195
C           -2.53680709767855        6.71736194389228        2.03479452482237
C           -3.40382005622585        7.64474867082143        1.17907742198975
C           -3.13557588939947        6.66978560792715        3.44776132948716
C           -2.46493801183873        5.30454219677277        1.47823845579140
C           -1.68037869620139        4.35110983147456        2.12396621365931
C           -1.57194551823453        3.06131302871781        1.65107476276117
C           -2.24568715407444        2.67314209436391        0.49503384057555
N           -2.09835999719669        1.37186881708275       -0.00512917827640
C           -3.20316259004375        0.67936994627900       -0.50027882139606
C           -3.08127869708113       -0.22750863021772       -1.55053527588418
C           -4.18652135539677       -0.89603111246293       -2.04055985766422
C           -5.45812490130900       -0.68222372739558       -1.52163172599536
C           -6.70770457167475       -1.35211436852521       -2.07179528464180
C           -7.41885369834056       -2.12424064620939       -0.95210589001241
C           -6.40015521081166       -2.33248368858150       -3.20704228468676
C           -7.64348721387104       -0.26527175837225       -2.62129009578759
C           -5.56785015734555        0.22128577845598       -0.46660797402516
C           -4.47151472154172        0.88436292061313        0.04231050150605
C           -0.82157824187423        0.80266970409468       -0.02318963922039
C           -0.66312969644335       -0.55652163174807        0.21951014327396
C            0.60174502003419       -1.13530987877432        0.14696172728692
C            1.73718114330472       -0.33906601383573       -0.10387761101907
C            1.55747715515632        1.04658619417997       -0.27837946613373
C            0.28661178662088        1.60586455384352       -0.28101420762816
N            2.66760608099666        1.84480204683692       -0.50569298886593
C            2.69685140629467        3.17863991234735       -0.07740704592126
C            2.02759822485863        3.56490532179543        1.08102282406332
C            2.10104243793802        4.86846956138785        1.52601870747721
C            2.86768830010615        5.79129592909930        0.83685266993276
C            3.56918777041149        5.39974027630303       -0.29018367332811
C            3.49404544832333        4.09919411024464       -0.76412900113552
C            4.19799064360219        3.59920706152183       -2.00645512337730
C            3.15153844564349        3.47084047563070       -3.13414768239562
C            5.29726179780088        4.54851172837610       -2.48211153588002
C            4.71348043866600        2.20499984453451       -1.69397106741990
C            5.93094697328813        1.73027606658897       -2.14232499548985
C            6.27584258343515        0.39562051628341       -1.97762084457931
C            5.39992878575015       -0.47172517279974       -1.36586337131697
C            4.18008969313731       -0.03642894540187       -0.83898728413420
C            3.85801469833328        1.32514171573596       -1.01033165377637
B            3.11897430899962       -0.95391481072703       -0.18490884289616
C            3.19769661595192       -2.41654099591248        0.29052615180502
C            4.38999128250467       -3.10558179842464        0.54922205511069
C            4.44221659796108       -4.44218680590984        0.89015017807311
C            5.73822602126621       -5.18625632061450        1.17092233223424
C            5.88517885009679       -6.33657352705186        0.16479200508884
C            6.97220878544557       -4.28777813905030        1.05059866054625
C            5.69357942907757       -5.74833233179852        2.59880131434688
C            3.22546999667329       -5.12679812981795        0.96135553690738
C            2.02744622255645       -4.48549434591251        0.76130279881144
C            1.98449973047631       -3.11766475484415        0.46340409323405
N            0.75747571044185       -2.49216728495621        0.33437509792500
C           -0.43789471256878       -3.26017470855675        0.43048211687132
C           -1.16086975668253       -3.55412330248855       -0.71502650461774
C           -2.36528037911694       -4.22906231086748       -0.62715165109693
C           -2.87672236796083       -4.63330523146570        0.59996942957472
C           -4.21283529071903       -5.34292395809669        0.74659861483205
C           -4.91500074487437       -5.55676272624029       -0.59653000155155
C           -5.12543506592756       -4.48564829745271        1.63604707023508
C           -3.99005114627503       -6.71622785337306        1.39494654929386
C           -2.12561362113623       -4.34984867014549        1.73894394866347
C           -0.92673578699632       -3.66962908754765        1.66392494404341
C           -3.04622313705629        3.61027634083861       -0.14879260959482
C           -3.15173111251483        4.89920501481993        0.33988990649565
H           -0.48628365817475        6.74712801045909        2.77381213076892
H           -1.15505696593569        8.33885443959781        2.42996232163826
H           -0.66085285724030        7.27919516095693        1.10440350888778
H           -3.00957398767107        7.72463034991701        0.16864978661094
H           -3.41155471099301        8.64087669237938        1.61729140351514
H           -4.43126634625884        7.29095292772519        1.13477763359329
H           -2.52994655685750        6.06093498167190        4.11345206915957
H           -3.19678385676461        7.67326694221951        3.86390793563948
H           -4.13762035786044        6.24668577199787        3.41724765232260
H           -1.14388061698170        4.61134812568315        3.02380574214451
H           -0.96486996941168        2.33812958085730        2.17604667866911
H           -2.11203278287393       -0.40088892394274       -1.99404617223140
H           -4.03482810170979       -1.58255653416532       -2.85768236615959
H           -6.76362819668015       -2.89154921886485       -0.54683201480672
H           -7.71351510863202       -1.46539704543623       -0.14016623583041
H           -8.31403738067545       -2.60635039104244       -1.33983396361985
H           -5.73427051402203       -3.12491470917524       -2.87296132132602
H           -5.94633590770063       -1.82160288945036       -4.05296779871134
H           -7.32451916004666       -2.79349588246092       -3.54962703447006
H           -7.14283640354073        0.30104900477988       -3.40397787440934
H           -7.94393739066093        0.42726275766432       -1.83981743053399
H           -8.53988025467068       -0.71733087569919       -3.04103384162092
H           -6.53166205494646        0.41817809468992       -0.02113146594680
H           -4.59259953633732        1.57304243051846        0.86589122154995
H           -1.53344211691562       -1.14590048014439        0.46081385527212
H            0.14803633778820        2.65625031941850       -0.48802808471847
H            1.46006041999093        2.83449443253907        1.63578971984129
H            1.57206891269496        5.15871581315602        2.42078583573699
H            2.92876249936463        6.81306088743966        1.18045600766694
H            4.17604021814790        6.12955538473126       -0.80125620268236
H            3.61900832831903        3.06798987947428       -4.03044656217051
H            2.73156628235511        4.44804333562425       -3.36495885047762
H            2.34082550121698        2.80780580206024       -2.84294351448431
H            5.75411585182405        4.16998024304224       -3.39293983221296
H            6.06575303072393        4.66789624919442       -1.72144789804629
H            4.87582493271779        5.52292585571796       -2.71669764256054
H            6.61876845959259        2.38225169864820       -2.65600399775846
H            7.22260552600266        0.03950540149630       -2.35775020454048
H            5.64989803652665       -1.51929987053086       -1.30450700442136
H            5.29932109386496       -2.53242235749730        0.48997206636815
H            5.89308254165424       -5.94752424228082       -0.85145685802113
H            6.81735233107064       -6.87093534038474        0.33763102525404
H            5.06629035914146       -7.04558855239233        0.25090351419401
H            7.86653746169918       -4.86827129282210        1.26969761888760
H            7.06946462530862       -3.88942981854419        0.04336293149379
H            6.92567584973671       -3.46188321539283        1.75658029210651
H            5.57461915529048       -4.93909474597637        3.31653661584275
H            6.61734859517444       -6.27751019411472        2.82462717159906
H            4.86541018370001       -6.44029780460301        2.72588429745854
H            3.20687416522708       -6.18172095687964        1.19230211867433
H            1.10985884424717       -5.04938486289485        0.84310580185170
H           -0.78244776675935       -3.23662226767066       -1.67554648840233
H           -2.90131717859726       -4.42896735884010       -1.53990542583282
H           -5.11004820238365       -4.60646837381502       -1.08779288373405
H           -5.86941347039622       -6.05334372876410       -0.43327029021470
H           -4.31913071173799       -6.18396426761769       -1.25572566991803
H           -6.11702129132502       -4.92941155777616        1.69592189941051
H           -5.21692543841450       -3.48227214035782        1.22408940860679
H           -4.73056855651880       -4.40168596800949        2.64464031467929
H           -3.33178173201688       -7.32211365082754        0.77563048558561
H           -3.54045092142346       -6.62267627108334        2.37952781879801
H           -4.93907249080697       -7.23710564558670        1.50227478006007
H           -2.48338846504427       -4.65119969175057        2.71165445945656
H           -0.36624542415671       -3.44415428867314        2.55946116808296
H           -3.58215550339981        3.32615475534551       -1.04301131047241
H           -3.77831933126969        5.59124546938547       -0.19877525249970
