  107
       -152.50627192
 C         -1.0606497671        6.2207212875       -1.4694089525
 C         -0.5024610268        4.8042085048       -1.6660948256
 C          0.5722091212        4.5604323765       -0.6027231008
 C          0.1631014493        4.6949059730       -3.0450323350
 C         -1.6467496459        3.8057257376       -1.5818182947
 C         -2.6834871936        3.8740942325       -2.5124750711
 C         -3.7483043393        2.9910877055       -2.4948199325
 C         -3.7884489463        2.0119599430       -1.5167414616
 C         -2.7629757776        1.9421869122       -0.5667342714
 C         -1.7024606847        2.8209979206       -0.5985058334
 C         -3.0107661879        0.8065611086        0.4086519534
 C         -3.2929384372        1.2844450235        1.8190794081
 C         -3.7657112848        2.5684974229        2.0557765874
 C         -4.0832799985        2.9747372672        3.3398952426
 C         -3.9408026364        2.1011693790        4.4038476892
 C         -3.4801308037        0.8159230120        4.1744075515
 C         -3.1613051589        0.4096716708        2.8915709386
 C         -1.8387052699       -0.1503896691        0.3504556159
 C         -0.6797983780        0.1579382920        1.0720452625
 C          0.4492326584       -0.6319009117        1.0124789933
 C          0.4145398326       -1.7579645732        0.2043713724
 C         -0.7587766078       -2.1056254551       -0.4990464445
 C         -1.8792984486       -1.2880870267       -0.4363382775
 C         -0.4809795418       -3.3510294004       -1.1585536221
 C         -1.2244608200       -4.1794437262       -1.9884601487
 C         -0.6352844728       -5.3294745415       -2.4745800765
 C          0.6817060660       -5.6516123811       -2.1535941476
 C          1.4417785286       -4.8441454303       -1.3291692553
 C          0.8482176949       -3.6982096424       -0.8207127356
 N          1.3788684318       -2.7230084135       -0.0014470830
 C          2.6874764570       -2.6711328059        0.4948609426
 C          3.2193613040       -3.7415170590        1.2075260578
 C          4.5075419956       -3.6572383453        1.7044527230
 C          5.2700215541       -2.5216507839        1.5020732161
 C          4.7509589127       -1.4568298248        0.7672426842
 N          5.5321249553       -0.3235564685        0.5180023304
 C          5.1279937136        0.9924732829        0.6429621764
 C          3.9233408766        1.5145938282        1.0909685581
 C          3.7854352777        2.8887149425        1.1331736785
 C          4.8237387030        3.7352530716        0.7532274801
 C          6.0367436107        3.2243778060        0.3371611900
 C          6.1960365067        1.8460278160        0.2831571606
 C          7.2938717884        0.9957248003       -0.0822334164
 C          8.5837903755        1.2464524156       -0.5312371825
 C          9.3993365408        0.1744722359       -0.8325343016
 C          8.9347266458       -1.1328789404       -0.7103409358
 C          7.6558115586       -1.4065554941       -0.2641300571
 C          6.8417367388       -0.3344466928        0.0727520429
 C          3.4570521753       -1.5364966290        0.2655728610
 C         -4.3032851890        0.2278087660       -0.1327145747
 C         -5.0227920853       -0.8407074208        0.3461791491
 C         -6.2078128240       -1.2249500481       -0.2847021925
 C         -6.9632624226       -2.4289672316        0.2553248440
 C         -6.0570074208       -3.6647380142        0.1558146077
 C         -7.3337633367       -2.1725221646        1.7228727148
 C         -8.2525989901       -2.7191624858       -0.5171635399
 C         -6.6382172667       -0.4942465304       -1.3875401231
 C         -5.9236686203        0.5910720543       -1.8719235405
 C         -4.7468254746        0.9557512465       -1.2443905194
 H         -1.7955774158        6.4642847523       -2.2313634809
 H         -1.5388859262        6.3041487065       -0.4956095293
 H         -0.2568916594        6.9518334966       -1.5235649862
 H          1.3706989794        5.2899980004       -0.7215475689
 H          0.1629273989        4.6709735736        0.3987618206
 H          1.0061537973        3.5689048312       -0.7071776558
 H          0.5326522795        3.6839880615       -3.2036293166
 H          1.0025196446        5.3837436071       -3.1111752446
 H         -0.5343931865        4.9322672356       -3.8429082503
 H         -2.6644392413        4.6351812755       -3.2779429245
 H         -4.5327617750        3.0680567286       -3.2333955613
 H         -0.9268495635        2.7346022372        0.1422301235
 H         -3.8856934644        3.2544116542        1.2304762490
 H         -4.4469835537        3.9779867503        3.5088584960
 H         -4.1899746488        2.4184732747        5.4056164719
 H         -3.3695522028        0.1256946055        4.9984359613
 H         -2.7946742421       -0.5922802831        2.7219344442
 H         -0.6769158988        1.0279964827        1.7110791684
 H          1.3236081781       -0.3916302343        1.5975199193
 H         -2.7694027683       -1.5464378727       -0.9879240024
 H         -2.2405340985       -3.9218972968       -2.2474753753
 H         -1.1968437757       -5.9885145016       -3.1195873172
 H          1.1190292305       -6.5514802590       -2.5599023506
 H          2.4662309343       -5.0935677959       -1.0965393429
 H          2.6168282907       -4.6195185442        1.3821606762
 H          4.9169305289       -4.4806118067        2.2701689732
 H          6.2611323272       -2.4474847270        1.9215550258
 H          3.1173361261        0.8738676461        1.4090862220
 H          2.8527310253        3.3150659823        1.4717833306
 H          4.6764252094        4.8038904356        0.7972103358
 H          6.8495435667        3.8786530308        0.0610617371
 H          8.9346345096        2.2608909965       -0.6451398839
 H         10.4071259492        0.3465567915       -1.1790706156
 H          9.5867733568       -1.9521703819       -0.9743806892
 H          7.3019281856       -2.4240286309       -0.1968806775
 H          3.0549654831       -0.7305117894       -0.3279898768
 H         -4.6580324257       -1.3810409604        1.2055442400
 H         -6.5757409241       -4.5424399072        0.5354068556
 H         -5.7845247000       -3.8475103075       -0.8817168271
 H         -5.1437634880       -3.5331124034        0.7291986235
 H         -6.4496888991       -2.0247099463        2.3361975461
 H         -7.8888334741       -3.0186545907        2.1223541784
 H         -7.9547728604       -1.2827771498        1.8025781584
 H         -8.9371019967       -1.8759305391       -0.4643659939
 H         -8.7491455186       -3.5834358712       -0.0806855061
 H         -8.0425025480       -2.9444897949       -1.5600315610
 H         -7.5508074101       -0.7637920631       -1.8934155420
 H         -6.2859572091        1.1383685691       -2.7298903440
