110
 energy: -178.295209026943 gnorm: 0.000141618436 xtb: 6.7.1 (edcfbbe)
N            1.55756683148355        9.83352850725056        1.85898966633052
C            1.06079354841555        8.81221224269346        1.66759138060709
C            0.42631297316250        7.58291653185696        1.43156396996841
N            1.15260144659532        6.48796858644536        1.19075816784322
C            0.50455587707804        5.32663967519244        0.96556449365544
C            1.25584505626613        4.14744847156803        0.69294011905663
C            2.66278612012458        4.19729797675144        0.70480598153857
C            3.41566858269505        3.07566895389397        0.49576645908412
C            2.77346932309209        1.85094090039712        0.23729656243572
N            3.52054518918307        0.68208434781869        0.05508804779854
C            3.26258952120577       -0.52700031316393        0.67020257392653
C            2.30534670286968       -0.85510064296045        1.62245263876120
C            2.27614152581422       -2.15186256941829        2.09255667950801
C            3.17511660539567       -3.12899133799795        1.64323119325112
C            3.08450394046234       -4.50443014906232        2.15206446174160
C            2.80486506921617       -4.75542374793347        3.49524812723811
C            2.71698509757726       -6.05211598381109        3.96613832311381
C            2.90029487619847       -7.12138124078469        3.10396633440156
C            3.17673692181740       -6.88480924413817        1.76674697627821
C            3.27063602192430       -5.58891656878676        1.29480107742443
C            4.15845483614660       -2.78288812423896        0.71723546634898
C            4.20996800624082       -1.48555396358606        0.23986584394996
C            5.08717426077418       -0.80376711255527       -0.67848991819961
C            6.18490362279004       -1.20863073735918       -1.41522842319106
C            6.82896302119874       -0.28689625953892       -2.23973736967447
C            8.01465487474253       -0.68489921188051       -3.00975092901186
C            8.08381577497279       -1.93853541300838       -3.61754015902630
C            9.20453638587587       -2.31332248260403       -4.33454516463413
C           10.27926300670456       -1.44659146611128       -4.45269744784236
C           10.22304863936219       -0.19904977303932       -3.85220515068192
C            9.10048920826623        0.18082428135846       -3.14069130369741
C            6.33500779408607        1.02255452266336       -2.32964158073970
C            5.23480263448629        1.44365363987679       -1.61102850639203
C            4.62255380088671        0.53109983065186       -0.76012116999853
C            1.39381794470751        1.79062517930028        0.18688828705657
C            0.59916368716218        2.91755948500560        0.42652543351432
C           -0.83975783164955        2.86560942560069        0.44249895245305
C           -1.55682306897649        1.69066362372482        0.19044802339676
C           -2.93564800052256        1.64767066434415        0.27760729714580
N           -3.59958053056964        0.43488546003189        0.06772866451711
C           -4.71150882769663        0.23479468750290       -0.72367453862769
C           -5.42438276849360        1.13588907520904       -1.50551987719061
C           -6.51064163762334        0.66228472290381       -2.21283725231399
C           -6.89121349581588       -0.68690783389272       -2.18081580900299
C           -8.06465518010709       -1.14197264855486       -2.93803907014859
C           -9.22726759802201       -0.37241651682255       -2.97720105488167
C          -10.33687769151769       -0.80740581124136       -3.67746390936227
C          -10.30286772626223       -2.01367730585629       -4.35865868994772
C           -9.15136150443252       -2.78406051478652       -4.33215593054593
C           -8.04318904269506       -2.35518331904139       -3.62594789692392
C           -6.14479225622675       -1.59393838590450       -1.42949538209824
C           -5.05920254403742       -1.13754670052670       -0.70496842659527
C           -4.09649977545806       -1.79115137821663        0.14609041109535
C           -3.91357385228944       -3.10532091484730        0.53821828994737
C           -2.85684874106890       -3.41847125845747        1.39194098411517
C           -2.60617585951513       -4.80767105186156        1.79733994334527
C           -1.30145480821064       -5.29617001081048        1.87010411205565
C           -1.05789532593324       -6.60269108597278        2.24904141545833
C           -2.11285356605507       -7.44251817743460        2.56850492142654
C           -3.41340032468960       -6.96842268787514        2.50092382186549
C           -3.65986317501096       -5.66403404147130        2.11502327245810
C           -2.02935027147925       -2.39381865399807        1.87269361019391
C           -2.20190336779739       -1.07660570856709        1.50224860581311
C           -3.21955436907309       -0.77954812991716        0.60328299558845
C           -3.65712838912318        2.81327097169177        0.59411686543915
C           -2.98255447985768        3.98300864479420        0.80679410619869
C           -1.57710184173434        4.03988710763908        0.74647704777091
C           -0.90758143003633        5.27102493483824        1.00085035410906
N           -1.63249839508095        6.37657650351639        1.26945600934918
C           -0.98348824971303        7.52551530925003        1.47525302039986
C           -1.69977074092341        8.69866735983756        1.75861590772531
N           -2.26534120180479        9.67521681433655        1.98840518032724
H            3.12649111149045        5.14927548883654        0.91413748602190
H            4.49185558941126        3.11427601186074        0.55821458061619
H            1.61378745469335       -0.11750814278598        1.99853457961872
H            1.52733024747448       -2.42776616770438        2.81902270625231
H            2.68067526383670       -3.92877881443342        4.17947967416758
H            2.50505309968168       -6.23071956555200        5.01055723400340
H            2.82793976124054       -8.13428145047217        3.47280811506226
H            3.31570755080754       -7.71461647729142        1.08853697472858
H            3.46639489461926       -5.41281546163754        0.24707541975691
H            4.88778006897710       -3.51131641006807        0.39817471659866
H            6.55362784905286       -2.21935481147953       -1.33431127262007
H            7.24291016436273       -2.61289304153659       -3.54692398110005
H            9.24063328479681       -3.28499874969980       -4.80598949836254
H           11.15604520642344       -1.74130555217256       -5.01052606009787
H           11.05928719646998        0.47996490412901       -3.93770075553154
H            9.07321839624113        1.14752044264058       -2.65919064076297
H            6.81644475936738        1.71599458658909       -3.00252920002844
H            4.85918177529257        2.44929193772440       -1.72033608250248
H            0.93712382461786        0.84502382683981       -0.05444518871401
H           -1.03960501838545        0.79063742961653       -0.09806369700854
H           -5.13576980686834        2.17344236477469       -1.57185305671484
H           -7.07062817085534        1.34692369675004       -2.83184042812065
H           -9.26815242502498        0.56011936356551       -2.43328124176453
H          -11.23357861221171       -0.20452320756197       -3.69102524520241
H          -11.16984812397349       -2.35135415316930       -4.90750158738923
H           -9.11739809732688       -3.72248057669093       -4.86683976112485
H           -7.14302323790258       -2.95243844549281       -3.62588144627101
H           -6.42402742922761       -2.63561744638576       -1.39640943809817
H           -4.56666493187467       -3.88109945992746        0.16975997114703
H           -0.47555294133527       -4.65413926170711        1.60206641102892
H           -0.04151953969807       -6.96585058033735        2.29416529693524
H           -1.92295628388392       -8.46278704350116        2.86830136645714
H           -4.23885783315777       -7.61876506411921        2.75273105808296
H           -4.67515066581173       -5.29612795130833        2.08346520446455
H           -1.25002781357705       -2.64513152743381        2.57532728164233
H           -1.57495891428653       -0.30124629209987        1.91397281347965
H           -4.73026518635575        2.76994413066484        0.69386113041356
H           -3.50831150070131        4.89321497771059        1.05171943940788
