110
 energy: -178.295206489356 gnorm: 0.000123312335 xtb: 6.7.1 (edcfbbe)
N            1.57296247331372        9.85420337300986        1.79486435610511
C            1.07390534330978        8.83243831346479        1.61172200841324
C            0.43705724314476        7.60241218479953        1.38638229284471
N            1.16118364776367        6.50508967953404        1.14983681778529
C            0.51093055136208        5.34295615422958        0.93555179222874
C            1.25992620535503        4.16146909042196        0.66643546174772
C            2.66698679685280        4.20918769032885        0.67188266525942
C            3.41737478239730        3.08573169929541        0.46315899725459
C            2.77250467006687        1.86142944520181        0.20920652930200
N            3.51623999007584        0.69115997948899        0.02311784873198
C            3.25387541637565       -0.51974362446822        0.63304022980386
C            2.29788940699069       -0.84842697466455        1.58640761142987
C            2.26249499374905       -2.14798026989853        2.04831693223918
C            3.15469812360900       -3.12750918257665        1.59088479448671
C            3.05948467624740       -4.50534051979968        2.09209298964464
C            2.77597822884254       -4.76278309191937        3.43324222275013
C            2.68968137527535       -6.06155560935763        3.89856577179541
C            2.87756917878084       -7.12683510411763        3.03233260630902
C            3.15544357083340       -6.88399632247161        1.69645806903935
C            3.24800658664127       -5.58594750621844        1.23035235351225
C            4.13790013478724       -2.78074195873341        0.66493396434172
C            4.19478434714092       -1.48105264211259        0.19482268956005
C            5.07244774703966       -0.79946549546319       -0.72310448991148
C            6.16438543530738       -1.20743841715106       -1.46668924573184
C            6.80987544869134       -0.28584662582983       -2.29010340125960
C            7.98831240148100       -0.68801176434657       -3.06909553645298
C            8.04358931802367       -1.93801726044403       -3.68567189689828
C            9.15677957071442       -2.31688809831172       -4.41218142349330
C           10.23789106077799       -1.45819267220359       -4.53065466412700
C           10.19557590562319       -0.21447892001975       -3.92113835051590
C            9.08035719206928        0.16971934630322       -3.20043602249292
C            6.32342764169171        1.02690712925038       -2.37146823699684
C            5.22872220771505        1.45102723615101       -1.64616776222584
C            4.61469808308999        0.53819913923815       -0.79684620714326
C            1.39249339124607        1.80307862440660        0.16622401610263
C            0.60062014699991        2.93118919800570        0.40894126430915
C           -0.83806034089144        2.87981760864435        0.43690760830977
C           -1.55679828809736        1.70262154527668        0.20173768355309
C           -2.93480083606177        1.65970113032656        0.30126934748157
N           -3.59729986999746        0.44319795283650        0.10914760394216
C           -4.71081058818714        0.22896749155489       -0.67615048690130
C           -5.43498662697839        1.11944414263051       -1.45966897546521
C           -6.51996433905744        0.63232377090545       -2.15978349626684
C           -6.88823788450381       -0.72004860800984       -2.11892163480684
C           -8.05904160401462       -1.19019983922149       -2.87100991463313
C           -9.22850339620021       -0.43129595288281       -2.91382058562772
C          -10.33455990287004       -0.88010350973829       -3.61099979030560
C          -10.29027675551916       -2.08989676129783       -4.28532158431656
C           -9.13211914409843       -2.85008424931613       -4.25470153372324
C           -8.02743916284720       -2.40732907400349       -3.55160946622886
C           -6.13130720750360       -1.61609074601361       -1.36484651965282
C           -5.04685582366370       -1.14617163048398       -0.64734441227501
C           -4.07545383960322       -1.78634686341305        0.20423061516239
C           -3.87910210943797       -3.09631727796987        0.60380866330465
C           -2.81767496475398       -3.39465565863352        1.45734546375286
C           -2.55342172869117       -4.77876165728043        1.87104845051355
C           -1.24381031693215       -5.25217000168998        1.95741654447846
C           -0.98883236295676       -6.55458976423673        2.34279930678067
C           -2.03664307144472       -7.40577842593374        2.65549021767582
C           -3.34185389852945       -6.94663887516383        2.57556734727486
C           -3.59968501191426       -5.64640443775177        2.18334863974800
C           -1.99900041407173       -2.35906322908705        1.92986960336448
C           -2.18348490795360       -1.04618287216381        1.55032657894237
C           -3.20575946834250       -0.76428079046764        0.65172545996598
C           -3.65423250009873        2.82779143693289        0.61272887532209
C           -2.97807091541504        3.99952746054347        0.80969230989854
C           -1.57311469124209        4.05627576474979        0.73776297657557
C           -0.90117947873930        5.28894571938653        0.97815738248562
N           -1.62379900104567        6.39726853074298        1.24153673410426
C           -0.97262933572210        7.54693104192811        1.43615123650911
C           -1.68650633327197        8.72288433619316        1.71377426125244
N           -2.25052019469097        9.70150365550957        1.93870373372601
H            3.13308999417895        5.16112747919338        0.87603712513026
H            4.49381279839096        3.12299954760485        0.52175842921311
H            1.61170547491732       -0.10946721967664        1.96951354084459
H            1.51391980757335       -2.42389253170455        2.77496428221145
H            2.64920566810049       -3.93960990309533        4.12114907268668
H            2.47544063906264       -6.24494490229965        4.94168763370483
H            2.80751150349428       -8.14147656525637        3.39690907868521
H            3.29695113994461       -7.71068204492806        1.01502020169976
H            3.44536849167050       -5.40520132584059        0.18376256584599
H            4.86314443900358       -3.51064921517779        0.34007396404887
H            6.52734781686131       -2.22074983129336       -1.39229032396024
H            7.19750348500087       -2.60583820654560       -3.61460061629198
H            9.18204075736235       -3.28549342887792       -4.89058439221248
H           11.10890113919981       -1.75614851968844       -5.09575746914646
H           11.03706314855753        0.45800613969323       -4.00674546728469
H            9.06366553664935        1.13334553075955       -2.71233906273075
H            6.80598140170362        1.72062219019107       -3.04328001988293
H            4.85833005735061        2.45917177615640       -1.74990944762398
H            0.93320231880523        0.85813529859120       -0.07255397251815
H           -1.04188522356860        0.79982847998536       -0.08221529067041
H           -5.15590425502178        2.15916800729503       -1.53260383539684
H           -7.08861015489251        1.30859972288138       -2.78008525370067
H           -9.27738555196801        0.50404780363210       -2.37543000480016
H          -11.23647196862657       -0.28512306354903       -3.62774392937200
H          -11.15444103560915       -2.43822560494768       -4.83194210790105
H           -9.09006678617984       -3.79134280779796       -4.78377593882257
H           -7.12208556281478       -2.99667852857955       -3.54857613539494
H           -6.40144732437890       -2.65990604365945       -1.32449048632682
H           -4.52575555950735       -3.88016000131502        0.24117285315720
H           -0.42151241714959       -4.60278960846059        1.69594415705134
H            0.03141615979624       -6.90492568849285        2.39858164714537
H           -1.83757871224210       -8.42292242920316        2.95989699719222
H           -4.16214602506870       -7.60526888719632        2.82267005234931
H           -4.61888162915467       -5.29048917600898        2.14272949217205
H           -1.21660848566514       -2.59800594021631        2.63331956930829
H           -1.56217221694677       -0.26246485977772        1.95478797869681
H           -4.72651924602761        2.78522073723191        0.72152241424224
H           -3.50207745114798        4.91163953190952        1.05126740364818
