  94
  -153.786718390000       0.500105819483805      !
 N          2.9164221215       -3.1391825961       -1.2721820579
 C          2.3363360996       -2.2414127968       -0.8309117335
 C          1.6287093292       -1.1490270713       -0.3348348211
 C          2.2980614702        0.0332285208        0.0035850731
 N          3.6926169539        0.0491692246        0.0071964679
 C          4.5023963828       -0.8100372234        0.7154842896
 C          4.1528068115       -1.8139556960        1.6063836224
 C          5.1735298741       -2.5221181262        2.2119037541
 C          6.5093511193       -2.2302813537        1.9524081520
 C          6.8633191949       -1.2080449882        1.0878310357
 C          5.8562780172       -0.4883686570        0.4661234939
 C          5.8471651827        0.6219972466       -0.4513527529
 C          6.8424876758        1.3559385393       -1.0751208326
 C          6.4720778670        2.3697616259       -1.9427420065
 C          5.1317234139        2.6399984262       -2.2021438005
 C          4.1223787338        1.9179027389       -1.5938622094
 C          4.4881933956        0.9214633790       -0.7011660537
 C          1.5972756570        1.1975004252        0.3373096961
 C          2.2738447173        2.3109385444        0.8304998663
 N          2.8292546765        3.2270792573        1.2655320977
 C          0.1507525109        1.1827165036        0.3110020338
 N         -0.5590737301        2.3285133688        0.6816682532
 C         -0.5059333488        3.5449646779        0.0403755379
 C          0.3176013228        3.9568623704       -0.9993985794
 C          0.1411990239        5.2333416987       -1.4957758559
 C         -0.8370592123        6.0817494453       -0.9810277699
 C         -1.6716065530        5.6715437107        0.0440120267
 C         -1.5109987501        4.3961513116        0.5608814808
 C         -2.1888270264        3.6452436939        1.5822664480
 C         -3.2453204206        3.9208009386        2.4355948773
 C         -3.6371588044        2.9496387805        3.3409583931
 C         -2.9673302913        1.7312777765        3.4233595600
 C         -1.9107814130        1.4352731929        2.5838170617
 C         -1.5512204190        2.3832622053        1.6363504736
 C         -0.5187168693       -0.0044134003       -0.0030348846
 N         -1.9202018693       -0.0203275963       -0.0068347087
 C         -2.7316924314        0.8276787444       -0.7298331634
 C         -2.3861037229        1.8002808331       -1.6572760863
 C         -3.4079196835        2.5108796464       -2.2571770359
 C         -4.7429299455        2.2445797739       -1.9669267718
 C         -5.0933308691        1.2390236618       -1.0834109258
 C         -4.0844194576        0.5199231130       -0.4626817454
 C         -4.0760284179       -0.5775809958        0.4666769474
 C         -5.0742152399       -1.3028397777        1.0974611721
 C         -4.7088531562       -2.3049652630        1.9786852603
 C         -3.3692414291       -2.5628646296        2.2556148311
 C         -2.3578736806       -1.8463094147        1.6454968152
 C         -2.7185403720       -0.8751589661        0.7221056723
 C          0.1820883874       -1.1731371330       -0.3128775536
 N         -0.4923137271       -2.3412087106       -0.6800017139
 C         -0.3905064732       -3.5553572020       -0.0399494060
 C          0.4426184381       -3.9325383198        1.0052564489
 C          0.3206212736       -5.2172614655        1.4968167638
 C         -0.6141156268       -6.1075442099        0.9723138225
 C         -1.4597181612       -5.7318529920       -0.0569715159
 C         -1.3534780187       -4.4487032972       -0.5686728569
 C         -2.0576968784       -3.7254376730       -1.5922110310
 C         -3.0957191308       -4.0458749071       -2.4524064140
 C         -3.5262025546       -3.0905251830       -3.3570270114
 C         -2.9120769528       -1.8426284483       -3.4312515433
 C         -1.8742107765       -1.5019269967       -2.5853895440
 C         -1.4762153870       -2.4361096168       -1.6394434587
 H          3.1208211031       -2.0368721145        1.8212130805
 H          4.9293836768       -3.3160742610        2.9012728438
 H          7.2795386833       -2.8066689618        2.4415248241
 H          7.9003120726       -0.9738026388        0.9033758313
 H          7.8831003727        1.1383067587       -0.8906648600
 H          7.2329572535        2.9563906537       -2.4342094740
 H          4.8747892444        3.4276523611       -2.8940516838
 H          3.0868862009        2.1243718111       -1.8085798263
 H          1.0766908156        3.3077833340       -1.4047817127
 H          0.7732306567        5.5811020145       -2.2990422380
 H         -0.9443376008        7.0732125701       -1.3939194660
 H         -2.4343797544        6.3290001496        0.4321480445
 H         -3.7484750908        4.8747414940        2.3963821526
 H         -4.4626004600        3.1434500170        4.0086974999
 H         -3.2755037968        1.0048688650        4.1602516690
 H         -1.3770316318        0.5030209805        2.6747547425
 H         -1.3580229080        1.9991307661       -1.9143209661
 H         -3.1633962974        3.2853992346       -2.9686443012
 H         -5.5139156283        2.8225208241       -2.4531524007
 H         -6.1298063795        1.0148723060       -0.8834744639
 H         -6.1139399034       -1.0857030932        0.9069974313
 H         -5.4712740294       -2.8872271865        2.4731917645
 H         -3.1130327332       -3.3353528932        2.9651961632
 H         -1.3263058205       -2.0391964712        1.8925282362
 H          1.1679802698       -3.2509962554        1.4189647502
 H          0.9617851688       -5.5383831531        2.3039440765
 H         -0.6786404647       -7.1044678068        1.3808992887
 H         -2.1891798275       -6.4218156468       -0.4525991044
 H         -3.5549227482       -5.0219318892       -2.4190957244
 H         -4.3381225719       -3.3194361608       -4.0302285061
 H         -3.2491984827       -1.1281585280       -4.1671611327
 H         -1.3836225287       -0.5458897324       -2.6710813173
  94
  -153.786717990000       0.499894180516195      !
 N          2.9283425894       -2.9966716705       -1.5717708367
 C          2.3428220554       -2.0840107445       -1.1703472715
 C          1.6313263292       -1.0014214809       -0.6574233912
 C          2.3002614767        0.0318020196        0.0070452892
 N          3.6951113836        0.0534594054        0.0043624739
 C          4.5001575569        0.0809609899        1.1202877843
 C          4.1459285369        0.0387068993        2.4605919713
 C          5.1634579889        0.0456944459        3.3958848705
 C          6.5003257727        0.0791472333        3.0102735137
 C          6.8591733496        0.0935456104        1.6727477234
 C          5.8555875744        0.0906976139        0.7181353704
 C          5.8516102978        0.0788964361       -0.7222803179
 C          6.8490276916        0.1039246580       -1.6830372894
 C          6.4817909349        0.1061804478       -3.0182996297
 C          5.1422164440        0.1011944353       -3.3959780642
 C          4.1306562354        0.0801584486       -2.4545156253
 C          4.4942025704        0.0490444307       -1.1163952305
 C          1.6012971272        1.0455254602        0.6736466840
 C          2.2810014671        2.1470639167        1.1873811954
 N          2.8408166152        3.0741814790        1.5927587939
 C          0.1545722678        1.0138542861        0.6857172518
 N         -0.5524985794        2.0466335587        1.3084870474
 C         -1.5422132139        2.8083403406        0.7274522908
 C         -1.9149355301        2.8947177292       -0.6065481939
 C         -2.9649105821        3.7323531615       -0.9297973711
 C         -3.6156906790        4.4855869932        0.0443982402
 C         -3.2115814974        4.4444657348        1.3677971088
 C         -2.1618430936        3.6095400547        1.7158075267
 C         -1.4760315254        3.3320362693        2.9484761159
 C         -1.6191127154        3.7893678819        4.2484658721
 C         -0.7810117689        3.2817889705        5.2260404756
 C          0.1832327509        2.3233177644        4.9209427915
 C          0.3422410222        1.8498266247        3.6334406471
 C         -0.4843490140        2.3679127921        2.6449144257
 C         -0.5147002271       -0.0045256064        0.0028409643
 N         -1.9161883539       -0.0209765945       -0.0117205620
 C         -2.7037790816       -0.0535857167       -1.1428184212
 C         -2.3309347917        0.0150356665       -2.4776007773
 C         -3.3321406998       -0.0200911754       -3.4290387081
 C         -4.6738458127       -0.0934895512       -3.0659745521
 C         -5.0524376119       -0.1097259250       -1.7352035300
 C         -4.0642849672       -0.0842938392       -0.7639102574
 C         -4.0863295486       -0.0629349815        0.6739701958
 C         -5.1041731288       -0.0864340664        1.6139732086
 C         -4.7669835197       -0.0801701107        2.9558533455
 C         -3.4350413524       -0.0821065103        3.3604571237
 C         -2.4040445248       -0.0687798759        2.4409793112
 C         -2.7376928445       -0.0253971409        1.0946010247
 C          0.1850483215       -1.0095084601       -0.6736233091
 N         -0.4963133828       -2.0642466930       -1.2875803766
 C         -1.4733591060       -2.8360956181       -0.6970314631
 C         -1.8352863943       -2.9219898915        0.6398316275
 C         -2.8740421335       -3.7696107274        0.9736135725
 C         -3.5239032519       -4.5326497335        0.0066006987
 C         -3.1286376895       -4.4929286978       -1.3195131118
 C         -2.0895957160       -3.6488046333       -1.6776392837
 C         -1.4138515932       -3.3695169903       -2.9153770044
 C         -1.5600309047       -3.8344962579       -4.2122954438
 C         -0.7337570624       -3.3225048291       -5.1974289709
 C          0.2227225566       -2.3528783632       -4.9025296185
 C          0.3848886142       -1.8719005738       -3.6183420043
 C         -0.4311482656       -2.3926510012       -2.6223095477
 H          3.1130037087        0.0008975002        2.7653689133
 H          4.9160171946        0.0219019866        4.4463184610
 H          7.2677329477        0.0856643836        3.7690370216
 H          7.8972229422        0.1029742694        1.3784091135
 H          7.8887841751        0.1248626784       -1.3953799914
 H          7.2444727692        0.1202759900       -3.7816811793
 H          4.8880663055        0.1167389436       -4.4449393645
 H          3.0950704751        0.0889014598       -2.7526313626
 H         -1.3960165159        2.3394654865       -1.3710409379
 H         -3.2827493930        3.8073403597       -1.9589006590
 H         -4.4361403548        5.1247266631       -0.2442867251
 H         -3.7001432111        5.0525249023        2.1136447224
 H         -2.3707155049        4.5244625454        4.4922208487
 H         -0.8743243694        3.6291960125        6.2436583826
 H          0.8180718622        1.9430644726        5.7070553668
 H          1.0903660921        1.1075016155        3.4072090405
 H         -1.2977826863        0.1009802041       -2.7739424422
 H         -3.0660698715        0.0148901629       -4.4748884072
 H         -5.4281221111       -0.1215469668       -3.8373843579
 H         -6.0947596075       -0.1368460830       -1.4571931792
 H         -6.1373112879       -0.1135310313        1.3035367611
 H         -5.5454646462       -0.0894192545        3.7033461387
 H         -3.2004956128       -0.0992704321        4.4143058145
 H         -1.3779891188       -0.0986152312        2.7706129397
 H         -1.3161522688       -2.3586266516        1.3983953916
 H         -3.1835158190       -3.8442890995        2.0052256638
 H         -4.3361104733       -5.1785059670        0.3031217328
 H         -3.6157697957       -5.1085685248       -2.0600365106
 H         -2.3051269129       -4.5788906961       -4.4476381775
 H         -0.8299391854       -3.6753985373       -6.2128406200
 H          0.8489754190       -1.9700915291       -5.6942107909
 H          1.1282387538       -1.1224276708       -3.4000974815
