70
 energy: -97.090794162802 gnorm: 0.000046782325 xtb: 6.7.1 (edcfbbe)
C            6.68009379598787        0.05329096621897       -0.88584046712166
C            5.76078287356232       -1.01242751443403       -0.28353096190950
C            6.00035136315907       -1.04770256185961        1.23240080524004
C            6.13099234255456       -2.36871140838073       -0.90002080061795
C            4.28954883828106       -0.73151424254264       -0.54589551727202
C            3.84296823201051        0.36985487777640       -1.26628369339348
C            2.49648364646824        0.59837849009835       -1.47167621128172
C            1.55011607860730       -0.27543744967479       -0.95356086864641
O            0.23553778089633        0.06781827511774       -1.12998846669343
C           -0.75695400286084       -0.82940050504638       -0.81957024787817
C           -0.85568208564024       -2.07228561180464       -1.42503092009180
C           -1.92116892838729       -2.90790354141950       -1.13456375603781
C           -2.91412093824500       -2.53613155388428       -0.23492677826310
C           -4.09658056446622       -3.42373322948214        0.11729298622110
C           -5.39487707076362       -2.67617502498400       -0.21660503459072
C           -4.04911235638644       -3.73752295088466        1.61909618500089
C           -4.09143181438258       -4.74646494890162       -0.65358306789542
C           -2.79386766202966       -1.28791713830933        0.36744013381095
C           -1.73830475175543       -0.43901105288301        0.08716121404849
P           -1.67785320215386        1.13984859811946        0.99902826438717
O           -2.48745158468907        1.08434245300588        2.22385027769681
C            0.09394287479061        1.41577851572166        1.33557127159731
C            0.71477584071615        0.45662217020351        2.12424026022671
C            2.05660766169060        0.57512336388742        2.43451595612904
C            2.77821629999377        1.65719376521821        1.95872824520717
C            2.15566797057103        2.62236166362351        1.18537747142296
C            0.81245418281721        2.50618105442290        0.87301022406871
C           -2.22663713633085        2.43198515165363       -0.15827949888302
C           -1.71028277443298        2.58101728222916       -1.43950830413136
C           -2.18920327173109        3.59018004225409       -2.25494480187771
C           -3.18004495702129        4.44634031610267       -1.79929148979903
C           -3.69814506010329        4.29415320746102       -0.52376541376468
C           -3.22186199240497        3.28616903755993        0.29546354887721
C            1.97483095452452       -1.38445842137064       -0.23591550923086
C            3.32515412380025       -1.60041128430106       -0.04523322628430
H            6.57061969245686        0.09940636094324       -1.96675230325815
H            7.71625773260264       -0.19438563448614       -0.66402670031672
H            6.47094217470850        1.03338385446804       -0.46360826424673
H            5.42203815284648       -1.83500221545371        1.70739817373224
H            7.05321179243111       -1.22485047401396        1.44194539091108
H            5.71374777465203       -0.09817430691713        1.67901478974399
H            5.94668826178464       -2.35650177968325       -1.97223229959649
H            5.54721544860336       -3.17427197337377       -0.46353378127541
H            7.18472339834331       -2.58199231699094       -0.73310576506130
H            4.54232433845935        1.07718409563461       -1.68018900981273
H            2.16208550691106        1.46343149836003       -2.02308921236078
H           -0.09538021291669       -2.38175887053918       -2.12825054005255
H           -1.95918010978694       -3.86411438774007       -1.63028081477926
H           -5.42235108912754       -2.42258511004794       -1.27445614931523
H           -5.48032544147644       -1.75770646428611        0.35657900818409
H           -6.25511765527342       -3.30194002667203        0.01095091301268
H           -4.88995929753029       -4.36991138772489        1.89550483357319
H           -3.12774946013681       -4.26137218826829        1.86555594207310
H           -4.09402800556733       -2.82936513814276        2.21301618677210
H           -4.96161592468614       -5.33391576735582       -0.36839002854065
H           -4.13962655612837       -4.57450167874403       -1.72646423063011
H           -3.20362379246301       -5.33139180069252       -0.42443313488548
H           -3.51347392426636       -0.94159045149955        1.09469437628991
H            0.12872692729595       -0.37714595598924        2.48917517653248
H            2.54179176396440       -0.17507833370825        3.04153839821217
H            3.82781050238140        1.75169280974521        2.19514135680734
H            2.71996542712673        3.46915040782893        0.82225645016898
H            0.32401330394032        3.25568689220622        0.26659650377003
H           -0.93903762397991        1.91224984280250       -1.78828613410819
H           -1.78951941365038        3.71107905646646       -3.25167849657111
H           -3.54930633603752        5.23243017509034       -2.44196962529354
H           -4.47170156731367        4.96001359275180       -0.16985340787691
H           -3.60959413760741        3.14256883771427        1.29373869397493
H            1.25304250843246       -2.06754767784981        0.18749785873088
H            3.62124330248891       -2.47029032134045        0.52122605267648
