70
 energy: -97.089944957930 gnorm: 0.000065547874 xtb: 6.7.1 (edcfbbe)
C            6.37266965825198       -1.16122365889603       -0.65948367479380
C            5.78702068801120        0.21099352298141       -0.29839187979077
C            5.71683383304916        1.09437429094899       -1.55199502832107
C            6.72944769236040        0.88045413289367        0.70529619699024
C            4.38043839482276        0.02992158045790        0.25066706533413
C            3.41209848343577       -0.59021204489701       -0.53235416372722
C            2.11287305263609       -0.75858268580182       -0.09449734653906
C            1.74769977659653       -0.30466392861557        1.16521758190853
O            0.47073397379322       -0.33218919062960        1.65486998391109
C           -0.50526070454705       -1.09515946746409        1.08361770438983
C           -0.40046441484288       -2.44170337313152        0.77925672686517
C           -1.50780937319089       -3.11470940529230        0.28625946180401
C           -2.73206876840735       -2.48183260385055        0.10288394585675
C           -3.96793135020118       -3.19552312666841       -0.42316131456352
C           -4.44350016002598       -2.49519265891468       -1.70433178082020
C           -5.06882256423818       -3.12974890214907        0.64432833067665
C           -3.70466754672626       -4.66736528980196       -0.75186499432128
C           -2.81786648879370       -1.12794254145894        0.42250281548374
C           -1.71770117859053       -0.43739315733648        0.88754372938239
P           -1.67330773487731        1.32309656754846        1.36987448782504
O           -1.62655046397401        1.56011632138717        2.81555620104892
C           -0.25937281716612        2.01261064628316        0.44881070187409
C            0.56444046855571        2.89288762113381        1.13379217594236
C            1.69713764001690        3.40068277607786        0.52450659985925
C            2.00723697673263        3.02889728052513       -0.77288159823399
C            1.18429949514847        2.15170794086816       -1.45955655916977
C            0.05248600450796        1.64080878471561       -0.85139543800489
C           -3.15619502072348        2.04762558582434        0.59291332440480
C           -3.47171965457083        1.89432045897035       -0.75138650206465
C           -4.61804401160447        2.47669408722437       -1.25993633629173
C           -5.44986710090889        3.21633296252263       -0.43339230188594
C           -5.13509867612157        3.37466440541359        0.90590230202148
C           -3.98947525514716        2.79038469506496        1.41639571360220
C            2.70089737485102        0.31297634922919        1.96467964870018
C            3.99433151267197        0.47493213208354        1.50999787726930
H            6.39571322766248       -1.80197776178750        0.21942914978352
H            7.38886960867331       -1.04893668777264       -1.03163441939970
H            5.78337572624191       -1.65585521932379       -1.42633081816088
H            5.29324874134881        2.06437497492525       -1.30075394405502
H            6.71339555217658        1.24683898145021       -1.96122453750403
H            5.09700818061551        0.64131949135313       -2.32069389457641
H            6.82107642191128        0.28605833294410        1.61124601485077
H            6.38035577055605        1.87675806297543        0.96574746188828
H            7.71968529052190        0.97658050448267        0.26430813194176
H            3.66163708850783       -0.94720534485307       -1.52020014297490
H            1.38201415541650       -1.22346103367010       -0.73999689536059
H            0.53177861013393       -2.96454738295187        0.93701448313926
H           -1.39514400324629       -4.16146467491775        0.05607458700293
H           -3.65790644232944       -2.51315349110822       -2.45719156019595
H           -4.71315121896732       -1.45983989597536       -1.51458599798089
H           -5.31656443521877       -3.00484993460328       -2.10605901471611
H           -5.96028777851871       -3.64633969504183        0.29504742170162
H           -4.73057214326662       -3.60557671298230        1.56225317437836
H           -5.33757972501307       -2.10236022441448        0.87368760140607
H           -4.61881089320438       -5.12292631939954       -1.12681408212724
H           -2.94068436079895       -4.76748446999541       -1.51948741109276
H           -3.39603721717863       -5.21705462515608        0.13407257655710
H           -3.74763465030464       -0.59122859450687        0.30386184075707
H            0.30881255433187        3.15013970339472        2.15150535756165
H            2.34283952944368        4.07976785694437        1.06185072056417
H            2.89412688120614        3.41829920544667       -1.25076629989935
H            1.43251312923124        1.85685343604564       -2.46894737751029
H           -0.57463433893089        0.93566024504898       -1.37901060211754
H           -2.82725645623331        1.31583335224870       -1.39669286130125
H           -4.86629684836686        2.35364608790107       -2.30455589661858
H           -6.34450410191951        3.66838869151792       -0.83629008912091
H           -5.78279349259131        3.95114348481447        1.55016394486454
H           -3.72331949815652        2.89281170108750        2.45842323022746
H            2.40176377595969        0.67487606155310        2.93555413941371
H            4.70004361957943        0.96386778715757        2.16074735201644
