  129
       -198.95358944
 C         -5.4045778099        5.0863446802       -1.4295801667
 C         -4.4703910543        3.8687714304       -1.4429179046
 C         -3.4242376769        4.0963892550       -2.5452661332
 C         -3.8489593787        3.6850297026       -0.0652156605
 C         -4.6779013017        3.6715666629        1.0587078115
 C         -4.1508610860        3.4687423347        2.3165257649
 C         -2.7921397549        3.2059537692        2.4796422140
 C         -1.9312708137        3.1174414344        1.3646623678
 C         -2.5007991306        3.4185674424        0.1199529705
 B         -0.4764448452        2.6735720899        1.6336201673
 C          0.6889240821        2.2725410516        0.7112696365
 C          0.6443284844        2.1132768416       -0.6874250173
 C          1.7505298683        1.7899225126       -1.4414136028
 C          2.9772511623        1.5972891858       -0.8143580360
 N          4.1461771658        1.3171873366       -1.5817050887
 C          4.5323695781        0.0077458014       -1.7687094036
 C          3.7424267674       -1.0247035445       -1.2465441008
 C          4.1016497836       -2.3427470699       -1.4157691380
 C          5.2632258269       -2.6586013060       -2.1008938590
 C          6.0419015335       -1.6436005624       -2.6249812979
 C          5.6977812617       -0.3068063028       -2.4822566065
 C          6.5747833455        0.7632820095       -3.0993089747
 C          6.6498542386        0.5201377497       -4.6184781375
 C          7.9802654773        0.6724548995       -2.4756293744
 C          6.0269006098        2.1544816846       -2.8547649292
 C          6.6972141647        3.2566419422       -3.3665972967
 C          6.2458812488        4.5478307463       -3.1636968550
 C          5.0946558582        4.7577325329       -2.4223594545
 C          4.4098533723        3.6835973940       -1.8999031195
 C          4.8586399085        2.3732505816       -2.1111675950
 C          3.0664660148        1.6951437349        0.5691589224
 C          1.9416970677        2.0213447144        1.3187222912
 O          2.1760235321        2.0889854915        2.6603723667
 C          1.1790766115        2.3419607902        3.5485014467
 C          1.5154706510        2.3361611101        4.8982419534
 C          0.5299358804        2.5684783666        5.8448262648
 C         -0.7804138678        2.8027490074        5.4593807616
 C         -1.0999985525        2.8246041017        4.1045950011
 C         -0.1270378702        2.6056898335        3.1182063907
 O         -2.3965185148        3.0500103938        3.7751837005
 C         -5.1910100925        2.5653439827       -1.7630820644
 C         -6.4413573419        2.4992554781       -2.3724409252
 C         -7.0198253226        1.2719572211       -2.6402677032
 C         -6.3633022223        0.0881997645       -2.3093648610
 C         -5.0772238849        0.1135798929       -1.7280393767
 C         -4.5427280364        1.3758093212       -1.4664738514
 B         -4.4222900997       -1.2355972644       -1.3770253317
 C         -3.0406297148       -1.6093921612       -0.8163970978
 C         -1.9266923908       -0.7612259468       -0.6760694714
 C         -0.7586167769       -1.1587032541       -0.0690899002
 C         -0.6520198080       -2.4506974557        0.4435755687
 N          0.5235829916       -2.8395049020        1.1391255758
 C          0.8040040640       -2.2317024852        2.3504659766
 C         -0.1111334936       -1.3239444930        2.9032808112
 C          0.1448938962       -0.7013698907        4.1033689001
 C          1.3261225951       -0.9629833533        4.7786586783
 C          2.2201961942       -1.8748604182        4.2512494975
 C          1.9770980101       -2.5367551776        3.0551700114
 C          2.9590996167       -3.5821806631        2.5703453521
 C          4.3190615094       -2.9061340841        2.3111009544
 C          3.0980463437       -4.6636014136        3.6588088669
 C          2.4986564702       -4.2358797359        1.2852206286
 C          3.2601580319       -5.2533155124        0.7254487133
 C          2.9180738802       -5.8507542091       -0.4739218126
 C          1.8018220809       -5.4011724761       -1.1612359926
 C          1.0281802974       -4.3931082598       -0.6304733533
 C          1.3403829689       -3.8194976143        0.6109471273
 C         -1.7037111794       -3.3462338557        0.2741515126
 C         -2.8654429542       -2.9416450202       -0.3730348084
 O         -3.7947726239       -3.9287728804       -0.5236747384
 C         -4.9804541991       -3.7103683030       -1.1559343470
 C         -5.8117342978       -4.8068261897       -1.3569216994
 C         -7.0340175950       -4.6242919865       -1.9863492776
 C         -7.4422383976       -3.3663069794       -2.3986703608
 C         -6.6079298807       -2.2730709871       -2.1815542351
 C         -5.3535470846       -2.4265041958       -1.5720377815
 O         -7.0564118442       -1.0552654483       -2.5805551088
 H         -6.2873069157        4.9116305549       -0.8215749650
 H         -5.7264944490        5.3339035980       -2.4385474141
 H         -4.8725154666        5.9446131661       -1.0236038204
 H         -2.8058001081        4.9614233133       -2.3144016652
 H         -3.9324420118        4.2771948638       -3.4905775389
 H         -2.7899140812        3.2237942278       -2.6768912782
 H         -5.7408470683        3.8214421108        0.9565088313
 H         -4.7798907687        3.4981502532        3.1932432911
 H         -1.8388293973        3.4355159475       -0.7283380785
 H         -0.2980108847        2.2451798736       -1.1926693818
 H          1.6806953238        1.6896895019       -2.5148341973
 H          2.8378458163       -0.7788553141       -0.7121091713
 H          3.4771862247       -3.1246338074       -1.0172378757
 H          5.5546851623       -3.6893948609       -2.2304810431
 H          6.9397846982       -1.9066565172       -3.1631227911
 H          7.2808109397        1.2620092970       -5.0996414979
 H          5.6537150323        0.5821762303       -5.0523338349
 H          7.0568423477       -0.4636903723       -4.8340325830
 H          8.6433162757        1.4171992970       -2.9067361571
 H          7.9212725000        0.8448807424       -1.4025828054
 H          8.4149436351       -0.3091448297       -2.6424648793
 H          7.5989824656        3.1105759023       -3.9414546483
 H          6.7897661362        5.3821709686       -3.5789177859
 H          4.7304805921        5.7592068965       -2.2505864518
 H          3.5157596430        3.8485968369       -1.3200567592
 H          4.0068291505        1.5299484465        1.0722534369
 H          2.5377140797        2.1491074620        5.1870062423
 H          0.7842341107        2.5641911677        6.8938050196
 H         -1.5559602123        2.9749137449        6.1891303286
 H         -6.9786642297        3.3960029419       -2.6368005250
 H         -7.9961642352        1.2109987283       -3.0971110638
 H         -3.5818627223        1.4225069810       -0.9821048148
 H         -1.9851585440        0.2406446896       -1.0662363403
 H          0.0713270049       -0.4740106933        0.0279281781
 H         -1.0356307592       -1.1178758906        2.3889234708
 H         -0.5764867301       -0.0129772022        4.5145771417
 H          1.5389730322       -0.4708579156        5.7143672295
 H          3.1290490095       -2.0807370824        4.7957890216
 H          4.2134048153       -2.1387902362        1.5465800632
 H          4.6954765102       -2.4402342761        3.2173603110
 H          5.0525407682       -3.6302841630        1.9671682631
 H          3.8094097729       -5.4281676138        3.3606110125
 H          3.4400220045       -4.2315867809        4.5944460897
 H          2.1343190030       -5.1384977113        3.8325470926
 H          4.1526923765       -5.5877822480        1.2314314761
 H          3.5282222610       -6.6437697519       -0.8777613468
 H          1.5377608163       -5.8306591275       -2.1154241416
 H          0.1738998290       -4.0337593135       -1.1805276280
 H         -1.6301691347       -4.3585350815        0.6415753180
 H         -5.4957018358       -5.7824938443       -1.0228127005
 H         -7.6788066424       -5.4737868456       -2.1515619785
 H         -8.3962281823       -3.2182191430       -2.8796112176
