  56
        -83.96058451
 C         -9.8883502650        0.8103866996       -0.3892593737
 C         -9.0953534548        1.7482089494       -1.0672417845
 C         -7.7355219638        1.6119360843       -1.0960881829
 C         -7.1045301252        0.5290663865       -0.4446031886
 C         -5.7093500430        0.3663163298       -0.4524845415
 C         -5.0974700359       -0.6997257324        0.1826688888
 C         -3.6512753040       -0.8631216982        0.1655939454
 C         -3.0621829767       -2.1263614605        0.1709261707
 C         -1.6879851882       -2.2762437137        0.1514967470
 C         -0.8292413615       -1.1610746673        0.1421920229
 C          0.5607553969       -1.2854747007        0.1432592287
 C          1.4176164611       -0.1535218103        0.1443205924
 C          2.7988021991       -0.2768847181        0.1558450569
 C          3.6491775689        0.8537313320        0.1736308866
 C          5.0958136992        0.6927900213        0.1934828471
 C          5.9109852872        1.6288009710        0.8766644375
 C          7.2660973994        1.4955828216        0.9067452431
 C          7.9092746130        0.4240992469        0.2466788272
 C          9.3066160119        0.2637538879        0.2528028019
 C          9.8926938836       -0.7873446078       -0.4005893398
 C          9.1033205550       -1.7228977217       -1.0859471835
 C          7.7425377024       -1.5952144114       -1.1085295505
 C          7.1069608079       -0.5226280287       -0.4446989119
 C          5.7109295562       -0.3666857560       -0.4489252065
 C          3.0602806242        2.1169078028        0.1687606208
 C          1.6861644395        2.2661239308        0.1417425217
 C          0.8282128833        1.1504092135        0.1367178245
 C         -0.5618102761        1.2747480433        0.1305451473
 C         -1.4185904147        0.1428567979        0.1371843916
 C         -2.7996458991        0.2668283515        0.1430789242
 C         -5.9167435411       -1.6377804674        0.8584701857
 C         -7.2712756052       -1.4996477087        0.8896953975
 C         -7.9104878359       -0.4193902051        0.2400426702
 C         -9.3068091545       -0.2512205816        0.2512103967
 H        -10.9615561685        0.9326570102       -0.3775568722
 H         -9.5704041061        2.5793695836       -1.5680427999
 H         -7.1213094713        2.3327760973       -1.6172119841
 H         -5.1157563641        1.0830784542       -1.0015671478
 H         -3.6859929363       -3.0077862037        0.1547449892
 H         -1.2549035487       -3.2661710735        0.1393512980
 H          1.0038710695       -2.2712141255        0.1486469321
 H          3.2336404797       -1.2650012268        0.1893049497
 H          5.4393149149        2.4422763769        1.4077841352
 H          7.8736431252        2.2104330775        1.4440742048
 H          9.9108393071        0.9871702704        0.7821282409
 H         10.9666069026       -0.9034081861       -0.3930200131
 H          9.5818105747       -2.5461199073       -1.5964568154
 H          7.1312971570       -2.3142760472       -1.6355524549
 H          5.1188979714       -1.0821607555       -1.0014526109
 H          3.6846273329        2.9979303402        0.1497154032
 H          1.2524696087        3.2556057158        0.1201695788
 H         -1.0049880097        2.2604358271        0.1257153609
 H         -3.2332631303        1.2556127416        0.1693700732
 H         -5.4487641094       -2.4566483390        1.3844579512
 H         -7.8814896735       -2.2165767063        1.4211934039
 H         -9.9140108956       -0.9761535664        0.7750272672
