56
 energy: -84.030998633875 gnorm: 0.000077298489 xtb: 6.7.1 (edcfbbe)
C           -9.86724286328501        1.19162290070735       -0.10486594017498
C           -9.02557869331252        2.25319847229242       -0.47318440899505
C           -7.67378762150172        2.06887705924815       -0.54838481056746
C           -7.10000931350725        0.81271040661217       -0.25788118188275
C           -5.71153402212244        0.59148157615998       -0.32747659108678
C           -5.16682286275952       -0.64028115346313       -0.05041704144869
C           -3.71689261836143       -0.86217098040675       -0.13485744976788
C           -3.21999772131257       -2.05597080324673       -0.72162073206233
C           -1.88422780513100       -2.28289274349618       -0.82322622837051
C           -0.94107842945108       -1.33994482115333       -0.33961254407219
C            0.43111265069031       -1.54623411561621       -0.43278572951521
C            1.34291396308137       -0.60648823592330        0.04360604208592
C            2.74092588629326       -0.80241095936210       -0.05122075998863
C            3.62976352316080        0.13274464818449        0.40848981266015
C            5.07953876141720       -0.07098147405433        0.28586616379986
C            5.64027410804321       -1.34235449565394        0.54040863611019
C            6.98336889490138       -1.55194800551806        0.42649814342509
C            7.85125661267687       -0.50750615886184        0.04310073264363
C            9.24230979771940       -0.69204573093620       -0.08871810451185
C           10.05142154190920        0.34378973682879       -0.46426914467256
C            9.50578829869544        1.61086571615009       -0.72449295942460
C            8.16111191958804        1.82169510039177       -0.60441775460641
C            7.29874485768675        0.77378968975030       -0.21764771433274
C            5.90996413322089        0.96101848673825       -0.08330352331402
C            3.13260244269900        1.32172967345152        1.00505341042240
C            1.79703217048284        1.54126270385864        1.12246706350616
C            0.85347225758682        0.59571682149752        0.64437569403127
C           -0.51864621709039        0.80086676093127        0.73989630458569
C           -1.43054321533027       -0.13640940535491        0.25855971087978
C           -2.82840461583423        0.06603525526106        0.33927410768156
C           -6.02447760927557       -1.70076864888670        0.31725458042289
C           -7.37332205138752       -1.51439492337224        0.40085107577813
C           -7.95220418796627       -0.26020344111047        0.11342854498995
C           -9.34224698751165       -0.03740632509711        0.18221235979379
H          -10.93368391876625        1.35566660077890       -0.05115775266536
H           -9.45787464911326        3.21768189176757       -0.69718633650719
H           -7.02212171973221        2.88345814850381       -0.83179474372871
H           -5.07201686710335        1.40948340895062       -0.62858490447236
H           -3.92577772405936       -2.77524807768115       -1.11115755252382
H           -1.51428277951069       -3.18981227869984       -1.28064160834986
H            0.79923290260633       -2.45616662759387       -0.88711777223110
H            3.09806387774288       -1.70606561343445       -0.52518734296159
H            4.98846682897850       -2.14638267549858        0.85005269410017
H            7.40437853559570       -2.52633206382515        0.63170071176491
H            9.65760053816424       -1.66965558832799        0.11238532635641
H           11.11681899589642        0.19552200454295       -0.56450014378451
H           10.16006198276784        2.41787322101564       -1.02100231531065
H            7.73677738467455        2.79578536042328       -0.80367728010291
H            5.49849651171306        1.93653069218578       -0.30245987104478
H            3.83995587294045        2.04367002605517        1.38651538497489
H            1.42726770786966        2.44531640844325        1.58566064666180
H           -0.88687874933575        1.71049946656606        1.19469344583120
H           -3.18807251530414        0.97171615921750        0.80730534406782
H           -5.59392220013894       -2.66259787068055        0.55585081188180
H           -8.02108622314127       -2.32980848482180        0.69118551284187
H           -9.98598577745737       -0.85812769445095        0.46615898117308
