56
 energy: -83.966046437707 gnorm: 0.000043306447 xtb: 6.7.1 (edcfbbe)
C          -10.14106644852157        0.29183109911027       -0.48292227925272
C           -9.70603664092894       -0.80870381153726       -1.23742661956495
C           -8.38467832182241       -1.15710877603844       -1.25303326550624
C           -7.43505283002432       -0.41921520937758       -0.51311404053347
C           -6.06962944024483       -0.75364975483112       -0.50915646850266
C           -5.14723934553833       -0.01891246517840        0.20773797844059
C           -3.73074395288969       -0.37168283378856        0.20260183414652
C           -3.31804568978394       -1.69809585318269        0.18291467946351
C           -1.97038274494051       -2.02765485783967        0.19110219044250
C           -0.97844811237200       -1.03629874710127        0.20416692195393
C            0.39012671062864       -1.34298285765826        0.20943346517402
C            1.38836207966576       -0.33282472365813        0.21121563325939
C            2.74154340138605       -0.63780104784430        0.21880894010923
C            3.73080891155874        0.37205202693028        0.20306901619735
C            5.14730661030059        0.01929705331282        0.20935181250191
C            5.60175838296478       -1.09088127833922        0.96065984132939
C            6.92119980878764       -1.43094618479109        0.98567081954081
C            7.87726844351241       -0.69554419273104        0.25099538140545
C            9.24539300179417       -1.02742541367602        0.24870353842676
C           10.14141885822777       -0.29257213462588       -0.47877104351999
C            9.70667144031944        0.80662945818899       -1.23537696662417
C            8.38531257381097        1.15497736290943       -1.25213250653234
C            7.43540189990583        0.41836006577268       -0.51130786461226
C            6.06997164962286        0.75277736809185       -0.50848075306638
C            3.31810848661368        1.69842546265473        0.18079514719080
C            1.97043921332194        2.02799929219218        0.18793959291490
C            0.97849770603928        1.03666667449833        0.20253891998440
C           -0.39007651104303        1.34335849854207        0.20682277457549
C           -1.38831234676166        0.33320536560087        0.21017710878840
C           -2.74149279246255        0.63819289074162        0.21679434960601
C           -5.60196452599265        1.09259059463018        0.95691377326587
C           -6.92141279484493        1.43270957010188        0.98081838809172
C           -7.87720295041411        0.69603185963784        0.24705869624064
C           -9.24531961759874        1.02793575794329        0.24363005924580
H          -11.18941107682981        0.55250555439143       -0.48185734102485
H          -10.42666298306146       -1.37797632540244       -1.80653538974777
H           -8.04571283373548       -2.00431071857287       -1.83253220962266
H           -5.74386151491807       -1.59104996460524       -1.10991184097299
H           -4.05527873269371       -2.48730100495052        0.19475466288065
H           -1.67172285305527       -3.06614305205278        0.19370843087282
H            0.69868402610006       -2.37865645116973        0.20901118696910
H            3.04440060644270       -1.67469856706588        0.20284727423767
H            4.88846922604797       -1.65247758917952        1.54595872808900
H            7.25760725472497       -2.27271434375090        1.57484070622171
H            9.57540256241050       -1.87532039085896        0.83247895929244
H           11.18976486844765       -0.55323593465291       -0.47684170434496
H           10.42751450167152        1.37491175690810       -1.80520065063900
H            8.04656397688607        2.00115479783082       -1.83325360701954
H            5.74443166891609        1.58911168973688       -1.11084158875599
H            4.05533268875983        2.48765422361054        0.19141008332769
H            1.67178138355611        3.06648865163538        0.18852178769235
H           -0.69863219261218        2.37903013002134        0.20438911703383
H           -3.04434825091039        1.67506197759213        0.19883146080312
H           -4.88889151373112        1.65520934749090        1.54149553822351
H           -7.25804147773761        2.27551677401580        1.56837586110360
H           -9.57555098643343        1.87685239194532        0.82579464486546
