112
 energy: -173.175712404348 gnorm: 0.000031319883 xtb: 6.7.1 (edcfbbe)
C           12.47511709276833        2.59280136215475        2.32451755949214
C           11.58889996919310        1.61436000970931        2.50488953306059
C           11.01272774015477        0.75522738106142        1.48470949238123
C           11.33803917332073        0.85129050919845        0.12687242311472
C           10.75845677530263        0.01487633615353       -0.80308791285143
C            9.83725235193700       -0.95328692533459       -0.41440205350461
C            9.22437511384812       -1.88040741105750       -1.43493345226344
O            7.93692624909314       -2.35374258720294       -1.08959024006184
C            6.89437644930990       -1.47728431138366       -1.07466112858530
C            6.97716489774307       -0.12063018022390       -1.35511761471682
C            5.83812091733326        0.68254745997180       -1.34996751080128
C            4.58720288691771        0.18015296846589       -1.04679186074705
C            4.49821561355985       -1.16865137009433       -0.73051047548342
C            5.63484674796566       -2.00808412803020       -0.76249456766140
C            5.18262873150100       -3.33236267853456       -0.45845838254415
C            5.82783565759016       -4.55693490315748       -0.32679384910142
C            5.07858111859317       -5.66491515907546        0.01723944708041
C            3.70728990986763       -5.56303233551221        0.24761583000374
C            3.04365217371329       -4.35518102442424        0.11935098815409
C            3.78282317590667       -3.24362959777506       -0.25661905026287
N            3.38135105147778       -1.92895354552378       -0.42378549303596
C            2.08091655239771       -1.45408821694921       -0.31905884542670
C            1.01695419369509       -2.13991756010952       -0.93210350619782
C           -0.26472941372922       -1.66565402788581       -0.84269667920741
C           -0.54476130707600       -0.48047303474681       -0.13418053014970
N           -1.84165313409318        0.00670439920687       -0.05057906329342
C           -2.06940271265711        1.37642584813681       -0.05605012107217
C           -3.11254489983934        1.93570363362586        0.70746331485214
C           -3.33937362387237        3.28649933247999        0.69699693022774
C           -2.53586426083562        4.14350160087132       -0.07622173683869
N           -2.76832370155499        5.51184529120347       -0.08742247507715
C           -1.80485022750702        6.50143696306496        0.02816726762777
C           -0.44034354890062        6.38694127575852        0.24197740505167
C            0.30046467071624        7.55192441385646        0.35446477068545
C           -0.30286776671095        8.80578030465844        0.26695687054916
C           -1.66611701402313        8.92819163049422        0.08550718213089
C           -2.43187285834609        7.77197140087810       -0.02613026676768
C           -3.83504162495986        7.53146014272323       -0.18211093197959
C           -4.94051791563865        8.36635478738732       -0.31082091498191
C           -6.18490709786159        7.79593074563492       -0.49122401326759
C           -6.33744024982904        6.41189617637691       -0.56163664876317
C           -5.25285499535581        5.56058920527450       -0.42991217062376
C           -4.00490615364464        6.12429497835725       -0.21672022363539
C           -1.49269261304276        3.58682034032724       -0.83759887631929
C           -1.26409769795128        2.23634893334036       -0.82807211070757
C           -2.91195673829118       -0.87392739052683        0.02701460418232
C           -2.79555985013081       -2.08873218338889        0.73049690604320
C           -3.85117346364940       -2.95867372559856        0.80243586059529
C           -5.07337200794089       -2.65811867867613        0.17464866880631
N           -6.14134221393329       -3.54183378732872        0.24294271012282
C           -7.45858361147233       -3.20526341997475        0.51266095219374
C           -8.00702157583558       -1.97674537714316        0.84528328248458
C           -9.36607314057647       -1.91995771246978        1.10620801293645
C          -10.16351377064763       -3.06203857589662        1.04713308719644
C           -9.61925628277823       -4.29507710502308        0.74732781680069
C           -8.25517322523697       -4.37791079210019        0.48627892356003
C           -7.37425344744772       -5.46616928814616        0.18543140023740
C           -7.56690076325444       -6.83300519077715        0.01150602772261
C           -6.48064649985697       -7.61942380755809       -0.31717746578838
C           -5.21542347208352       -7.06031924406438       -0.49134737251065
C           -4.99811245734539       -5.70337778494562       -0.31840870977414
C           -6.07692381535887       -4.91190494609442        0.04261631203000
C           -5.19174816193021       -1.44444319868647       -0.52624876589416
C           -4.13752484114140       -0.57320128257767       -0.59900998224197
C            0.52134848955771        0.20143824500364        0.48515288291960
C            1.80232334974070       -0.27476026276019        0.39500803761775
C            9.51174913087804       -1.06416704816234        0.93278209240088
C           10.08508262529358       -0.22230901106694        1.86229090046774
H           12.86902159537184        2.85401596607321        1.35739567626086
H           12.84097728935768        3.17345976570812        3.15420256619036
H           11.23898653711647        1.41179786140708        3.51076935386385
H           12.04985976194483        1.59158136922092       -0.20402821426661
H           11.02157196034691        0.10966189067533       -1.84803923176391
H            9.82860735139242       -2.79319810066483       -1.51136974743560
H            9.20365519112845       -1.40208039964436       -2.42391925761162
H            7.92775602602111        0.33439174958356       -1.58141660802044
H            5.94508273076211        1.72896075792735       -1.59368480134775
H            3.71634474285733        0.81502565281809       -1.07295290663370
H            6.89253926403761       -4.62443822673835       -0.48721866191772
H            5.56103157744408       -6.62592120695226        0.12273003111136
H            3.15201857220432       -6.44315205180007        0.53691285122191
H            1.98599988384108       -4.28589433332279        0.32238682451230
H            1.22798401052799       -3.02195148133949       -1.51667245189027
H           -1.06905741052655       -2.17656698851223       -1.35024531280354
H           -3.71092884905177        1.28980093270777        1.33226955456583
H           -4.11240858222038        3.71029525085507        1.31935548140905
H            0.03696846040442        5.42328920674485        0.33392038699536
H            1.36596975353940        7.48732133790689        0.51903331965917
H            0.30826378779597        9.69247700748748        0.35434197638541
H           -2.13450223846258        9.90000348393168        0.03761865139423
H           -4.82160664576854        9.43908138846334       -0.27663706387609
H           -7.05508248868203        8.42837479929339       -0.59228411295180
H           -7.31985750249216        5.99477777852843       -0.72722973125332
H           -5.38254190557843        4.49202518332125       -0.50814624424704
H           -0.89980441130507        4.23144452564811       -1.46803282659618
H           -0.48534548821728        1.81342161304272       -1.44473509584578
H           -1.87298472427693       -2.31067720589221        1.24546297902821
H           -3.76668801610259       -3.86533938461776        1.38148059826901
H           -7.39829471556903       -1.08842791222876        0.91669208431325
H           -9.81556465120159       -0.97277983564361        1.36566433197081
H          -11.22107128043904       -2.97791104643301        1.25172461267561
H          -10.23497167088567       -5.18183298168700        0.72175146586039
H           -8.54996197894715       -7.26490043259163        0.12606708647852
H           -6.61098144182391       -8.68307065050500       -0.45514423648592
H           -4.38895826740690       -7.69682764455382       -0.77125879213314
H           -4.01779389306020       -5.28132625334082       -0.47817477168465
H           -6.11073739615414       -1.22637531180316       -1.04807986692090
H           -4.22496099645887        0.33785414646317       -1.17168821073312
H            0.31139170548370        1.08806424179182        1.06433630078353
H            2.60562879395104        0.22994590214040        0.90918125250490
H            8.79809357468975       -1.81372636852068        1.24539670440396
H            9.81540747428032       -0.32010903920477        2.90487933832933
