67
 energy: -114.702785949365 gnorm: 0.000069198078 xtb: 6.7.1 (edcfbbe)
O           -0.05736589111269        4.89114444741936       -1.23610570547180
S            0.00005897828127        4.15936126041330        0.00000044851712
O            0.05750316832540        4.89112515864551        1.23611736409486
C            1.35937850286849        2.98797077263760       -0.04847230641761
C            2.08822852603475        2.72773380667639        1.09613386769537
C            3.02719930442300        1.71314531191792        1.08969723376934
C            3.22593304435700        0.95815946180324       -0.06576335172830
N            4.14684380389513       -0.10509252118279       -0.06588694120402
C            5.50700796184373        0.12540329536376        0.17054546133559
C            6.02337240092443        1.40293029432933        0.34376918287894
C            7.37799628055881        1.59603516896279        0.56866334580401
C            8.23889113966076        0.51820269508117        0.61224463252203
C            7.74345081505690       -0.76089757523270        0.40831079121708
C            6.39387431541002       -0.95861705665635        0.18155558008853
O            5.98405011122174       -2.24882449609054       -0.04529643010380
C            4.65018042896907       -2.45808749181065       -0.28532192537981
C            4.25200227696285       -3.76394353197549       -0.50548364138245
C            2.91547369082865       -4.06195720012744       -0.72493777165054
C            1.98048483518183       -3.04735254448289       -0.70193027676690
C            2.37428711148060       -1.73617751558098       -0.47973801078602
C            3.71334079927157       -1.41595841668011       -0.29389140977402
C            2.49844067011487        1.24807122839518       -1.22083024144435
C            1.55925825458470        2.26063658633507       -1.20752404813333
C           -1.35929013051026        2.98800499033084        0.04845733616711
C           -1.55919896049521        2.26067477414050        1.20750715530214
C           -2.49841189963910        1.24813772904093        1.22080456998072
C           -3.22590358174171        0.95824766037242        0.06573161094988
N           -4.14684518330551       -0.10497753960901        0.06585232975602
C           -5.50700538739060        0.12555494860020       -0.17056678566876
C           -6.02333007832334        1.40309005510933       -0.34385027377461
C           -7.37795198584268        1.59622923606359       -0.56872845341415
C           -8.23888411353837        0.51842358272456       -0.61224060424904
C           -7.74348307604196       -0.76068264530307       -0.40824776071051
C           -6.39390967965744       -0.95843543653068       -0.18150445890097
O           -5.98412805796505       -2.24864504962016        0.04541316992294
C           -4.65025694706822       -2.45794725842070        0.28539564640858
C           -4.25211573316618       -3.76380881273594        0.50559285394064
C           -2.91558856912501       -4.06186061703269        0.72500513338711
C           -1.98056488534107       -3.04728981384011        0.70191974063110
C           -2.37433084632786       -1.73610951528407        0.47969479603252
C           -3.71338059682329       -1.41585072137814        0.29388909228195
C           -3.02713408242012        1.71322401086469       -1.08972889341039
C           -2.08813430720045        2.72778606263529       -1.09615654977545
H            1.90399707228110        3.32359910363530        1.97628341388296
H            3.59796181541466        1.48660929782118        1.97775018083180
H            5.36529302088682        2.25608547927835        0.29291020389896
H            7.75100887862022        2.59925248757516        0.70450502013364
H            9.29248735587006        0.66275033675102        0.79090009203332
H            8.39127815407178       -1.62271232442483        0.41513545940710
H            5.00589909364998       -4.53463136243029       -0.49691691120205
H            2.61547142320476       -5.08267280914169       -0.90112862700254
H            0.93452456924101       -3.26340993268892       -0.85728240206552
H            1.62852538946275       -0.95715007036159       -0.44531550839059
H            2.67453657997922        0.67198099543078       -2.11677774269823
H            0.98577381229870        2.50621584318501       -2.08734660315878
H           -0.98572799698007        2.50624955412647        2.08733922323469
H           -2.67453663804582        0.67205634054486        2.11675188030636
H           -5.36522030732422        2.25622548401339       -0.29305946672448
H           -7.75092999656449        2.59945033234609       -0.70463550098183
H           -9.29247817800579        0.66299696002458       -0.79088590148511
H           -8.39134079660656       -1.62247472613999       -0.41500583442104
H           -5.00603907097696       -4.53447131048503        0.49708224461454
H           -2.61561509378390       -5.08257930294033        0.90122686497228
H           -0.93460727165752       -3.26337620625182        0.85724867257320
H           -1.62854352442846       -0.95710895738056        0.44522009089519
H           -3.59788598029947        1.48669671040686       -1.97779086359690
H           -1.90387473760198        3.32364329875701       -1.97630548759915
