67
 energy: -114.620716008928 gnorm: 0.000098788279 xtb: 6.7.1 (edcfbbe)
O           -0.49176325786644        5.55314151774974       -1.22489257549102
S           -0.20559627064850        4.83270278704261       -0.01164781614409
O            0.01815458556674        5.58111327899428        1.19777337017300
C            1.08499947868748        3.64006973855187       -0.28371725963874
C            1.58312596398383        2.94774454575925        0.82895433929997
C            2.06891535091961        1.67363065910077        0.68864543941471
C            2.05502927432356        1.05155974490292       -0.57267607547394
N            2.36521325294735       -0.32238325023933       -0.68380255815053
C            3.57284942589832       -0.81121154665098       -0.21760368462066
C            4.62225635367805        0.03461079015800        0.15194784679681
C            5.80438952763247       -0.48345864635451        0.63807290661143
C            5.97532944917004       -1.85799145630737        0.76320247547591
C            4.96307598141762       -2.71458515552626        0.36689863961259
C            3.77519952656549       -2.20551177690791       -0.13130895851785
O            2.82948868319115       -3.09733354240211       -0.54237463071811
C            1.67616083447302       -2.60522199708411       -1.07356564867928
C            0.74467541676233       -3.52887477280484       -1.52277586545655
C           -0.46796179932234       -3.10462492790902       -2.03514806678552
C           -0.75681643571469       -1.74768226755371       -2.07205508429878
C            0.16190103589959       -0.81903209045854       -1.62068969463016
C            1.40754894587798       -1.22158026872052       -1.13684012962897
C            1.66996706871203        1.78948035681272       -1.70356806132671
C            1.18136808250215        3.06311795596601       -1.55692549594560
C           -1.39040873034231        3.53629086976426        0.26687981378445
C           -1.43777163729857        2.95985296717885        1.54308255426906
C           -1.81669130815029        1.65015942450461        1.69644320740916
C           -2.13762315544541        0.87638672794956        0.56949368533959
N           -2.33037267904903       -0.51829188723234        0.68794289378412
C           -3.49223796209738       -1.11017491028350        0.22472394131040
C           -4.60922331887456       -0.35824311764781       -0.14958457649383
C           -5.74319051141417       -0.97722482944497       -0.63253332521532
C           -5.79730220862072       -2.36192296712325       -0.74958461174562
C           -4.71640441601971       -3.12757762664433       -0.34841913600440
C           -3.57598104051240       -2.51699678467548        0.14659822711624
O           -2.55842654608602       -3.32335389900915        0.56272211990576
C           -1.45090882701362       -2.73242091850863        1.09076171734714
C           -0.44487653228236       -3.57142785700458        1.54517572111690
C            0.72748906601018       -3.04321738581002        2.05473107785126
C            0.90065883586213       -1.66659033328691        2.08354874879663
C           -0.09312923927669       -0.82152864304497        1.62696258637506
C           -1.30021480326402       -1.33074402271345        1.14585284171919
C           -2.20384744001453        1.48847759523903       -0.69504580576843
C           -1.82776598268155        2.79843798408331       -0.84207635720721
H            1.54176373582118        3.42975984726299        1.79258323521097
H            2.42744544561689        1.12332685065163        1.54627815064906
H            4.49917485283267        1.10021214881217        0.04218316237203
H            6.60149801734172        0.18693046274775        0.91835477801013
H            6.89747906635423       -2.25933971363067        1.15132001531314
H            5.07544087185166       -3.78522253450765        0.42676818025855
H            0.99211271120361       -4.57563494396160       -1.45327717868109
H           -1.18705703906540       -3.82676578235450       -2.38707954956853
H           -1.70955789564501       -1.41072365458753       -2.45193248162624
H           -0.08685790852570        0.22915576812976       -1.63196169864570
H            1.75571610530243        1.33880929261675       -2.68167809641074
H            0.84803763198769        3.63977552885650       -2.40486575866664
H           -1.15471935952832        3.56708215433840        2.38795157274425
H           -1.86414339342079        1.19893441761482        2.67690595753320
H           -4.57673840702608        0.71456479061960       -0.04604702810489
H           -6.59398358939639       -0.37821596196587       -0.91664223489519
H           -6.68208809985632       -2.84206109414091       -1.13522886436939
H           -4.73785339176547       -4.20421002860011       -0.40201607720737
H           -0.60295885691612       -4.63574088832091        1.48189888033699
H            1.50493135085477       -3.69996429473949        2.41071700393500
H            1.82146610851225       -1.24808696068465        2.46111608767700
H            0.06617169226174        0.24397511630534        1.63200396325915
H           -2.51415165329550        0.90529881161742       -1.54975613100043
H           -1.82715218998779        3.27719553533313       -1.80821693984457
