67
 energy: -114.704056436018 gnorm: 0.000045017270 xtb: 6.7.1 (edcfbbe)
O           -0.52266098315045        5.53722047918997       -1.21227197383978
S           -0.20499159598481        4.82288668704616       -0.00791205094690
O            0.04962748274276        5.56365423395341        1.19544687145697
C            1.08614644167939        3.60599926577495       -0.31489295803331
C            1.59521292551317        2.93005188666136        0.78150036473077
C            2.12626368222822        1.66627547505584        0.62397898222561
C            2.12625048839744        1.06564871685712       -0.63677509237782
N            2.44117105617120       -0.29728097647382       -0.77406800259941
C            3.63144751913689       -0.80937601134305       -0.24509352012660
C            4.67898924473296        0.01980736041341        0.13547466529787
C            5.85240335679105       -0.51005376944401        0.64960290245557
C            6.00159709049565       -1.87644200814268        0.77926511263979
C            4.98037955836246       -2.71857737891763        0.36612737249755
C            3.80980213969110       -2.19460769518673       -0.15188639906875
O            2.86196973264236       -3.08755134835525       -0.57998277898899
C            1.70223154388737       -2.57804507295375       -1.10204496507101
C            0.75583347237826       -3.49790092804104       -1.51579276524719
C           -0.46488967101506       -3.07485539769662       -2.01610256583560
C           -0.73400045644698       -1.72362559962545       -2.08173441798806
C            0.21382419090123       -0.79719751430593       -1.67355704250070
C            1.45443040501512       -1.20227125211911       -1.19805019115196
C            1.73916471145801        1.81079574159171       -1.75142596189479
C            1.20167190800734        3.07381882668750       -1.58637670977963
C           -1.38601794691495        3.49931422229764        0.30097895762043
C           -1.45549901179188        2.96156855192792        1.57349284154067
C           -1.88306745495600        1.65761233851455        1.74096891408355
C           -2.20530303651755        0.87980259889273        0.62790549747212
N           -2.40479857925477       -0.50416065921966        0.76929676785158
C           -3.54869902476762       -1.11705047677726        0.24524917300826
C           -4.65845711264285       -0.38057076581876       -0.14945002496720
C           -5.78350934591051       -1.01039544903416       -0.65899570499898
C           -5.82182158595217       -2.38598799750575       -0.76966638900689
C           -4.73771187251620       -3.13716101766497       -0.34165376929479
C           -3.61501836760014       -2.51339644038350        0.17172947000809
O           -2.60072972469229       -3.32146571628218        0.61593181925773
C           -1.48579929901115       -2.71336699630734        1.12997418656986
C           -0.46942409817723       -3.54832502571141        1.55757065418526
C            0.71356686703483       -3.02150306971620        2.04996673250520
C            0.87465002500005       -1.65226278631966        2.09288050086988
C           -0.14386865534651       -0.81083734233830        1.67117464168483
C           -1.34872990652495       -1.32093377107143        1.20481484010862
C           -2.25537256713123        1.47545781902234       -0.63419788726729
C           -1.83442921707748        2.77979631528423       -0.79412624101139
H            1.52062949268989        3.38711081997520        1.75573963335723
H            2.48336044850384        1.11317606833034        1.47928961084095
H            4.57907224746593        1.08802855739158        0.02069299852877
H            6.64839976034225        0.15673615055034        0.94259885527187
H            6.90960913804112       -2.29375602785407        1.18464389202657
H            5.07468375496439       -3.79059264001034        0.43167230401221
H            0.99338265026724       -4.54536292014378       -1.42488879814323
H           -1.19825252141157       -3.79883924674274       -2.33322419352240
H           -1.68827041735380       -1.37757708896988       -2.45022950341148
H           -0.02813850031432        0.25290404276696       -1.71020472863313
H            1.81836537133946        1.37309000967187       -2.73500830966238
H            0.83729662048560        3.64392753725997       -2.42650269458812
H           -1.14147086594069        3.56245036958739        2.41249522689078
H           -1.92417455611265        1.21649621576538        2.72536391120794
H           -4.64608186295066        0.69364355210600       -0.04906301332922
H           -6.62950072038155       -0.41395973467480       -0.96335719312479
H           -6.69177530709209       -2.88074198566255       -1.17136069878987
H           -4.74538164983251       -4.21413476305293       -0.39144030551258
H           -0.62292805313919       -4.61270274151659        1.48386937969972
H            1.50197354465744       -3.67962699433538        2.37829276256910
H            1.79863608895550       -1.22549621848405        2.45387876146930
H            0.01371570221208        0.25570197042400        1.69035176451597
H           -2.56273993391862        0.89208174610962       -1.48865736333233
H           -1.79888049670734        3.23956433009210       -1.76930118962950
