  56
        -95.51110376
 N          6.9964816809       -1.7192813697       -0.7753322867
 C          6.0265994892       -1.1151035511       -0.6866437685
 C          4.8313233109       -0.3676351699       -0.5757925752
 C          3.7595018510       -0.6348256793       -1.4279350885
 C          2.5897153495        0.0856275721       -1.3047172091
 C          2.4700191383        1.0770661538       -0.3327945733
 C          1.2040137642        1.8125875908       -0.1582459632
 C          1.1947465573        3.1988173820       -0.1406654543
 C         -0.0067423544        3.8909708684        0.0037328998
 C         -0.0084302551        5.3049741675       -0.0011397437
 N         -0.0100871554        6.4509859986       -0.0063491928
 C         -1.2051599535        3.1947267881        0.1519930976
 C         -1.2088817149        1.8083704587        0.1703518180
 C         -2.4709478140        1.0675276721        0.3502659325
 C         -3.5646566528        1.3492590805       -0.4654315584
 C         -4.7347069460        0.6293970511       -0.3442218008
 C         -4.8263910813       -0.3846565418        0.6091806263
 C         -6.0188368099       -1.1351908539        0.7292764443
 N         -6.9868234282       -1.7411478693        0.8263820009
 C         -3.7453456723       -0.6537233964        1.4488765827
 C         -2.5787856168        0.0705052652        1.3179916047
 C         -0.0014098141        1.1135726546        0.0038155531
 N         -0.0014182945       -0.2939044991       -0.0049369936
 C          0.6643254449       -1.0124167402        0.9922853000
 C          1.2811193799       -0.3873344421        2.0677792870
 C          1.9566074997       -1.1282956395        3.0255883479
 C          2.0078326260       -2.5040507542        2.9326453030
 C          1.3485633247       -3.1455350876        1.8946708363
 C          0.6717926812       -2.4114402475        0.9383052117
 O          0.0010525014       -3.1137952272       -0.0302917552
 C         -0.6700170180       -2.3954654487       -0.9868933308
 C         -1.3453485507       -3.1135056344       -1.9565787959
 C         -2.0044111132       -2.4548222805       -2.9839191657
 C         -1.9542113332       -1.0776450209       -3.0529006044
 C         -1.2805825887       -0.3527783313       -2.0815092950
 C         -0.6641916611       -0.9956533623       -1.0162811301
 C          3.5551221928        1.3580673524        0.4947107704
 C          4.7279714847        0.6415051647        0.3818015443
 H          3.8508936700       -1.4063553160       -2.1780051086
 H          1.7678105603       -0.1139841149       -1.9769677347
 H          2.1171479912        3.7454304006       -0.2703988193
 H         -2.1295277649        3.7378225500        0.2826075497
 H         -3.4871280631        2.1250277945       -1.2130711369
 H         -5.5786372609        0.8404658076       -0.9838337210
 H         -3.8272870880       -1.4293403288        2.1956608988
 H         -1.7502175069       -0.1304098023        1.9814953443
 H          1.2256617114        0.6856520022        2.1671989783
 H          2.4367273288       -0.6172225067        3.8455436511
 H          2.5394850103       -3.0847163398        3.6691532987
 H          1.3416715673       -4.2203226248        1.8120866980
 H         -1.3374591841       -4.1895168777       -1.8927540701
 H         -2.5351306050       -3.0230627610       -3.7309519104
 H         -2.4338100259       -0.5526796241       -3.8643653389
 H         -1.2265501829        0.7217387926       -2.1626406088
 H          3.4681367215        2.1302404188        1.2450171875
 H          5.5648265023        0.8510297566        1.0310741379
  56
        -95.51108625
 N          6.6912347176       -1.7354639680       -2.0971043369
 C          5.7676937271       -1.1308239502       -1.7887971154
 C          4.6290550839       -0.3828749971       -1.4095494426
 C          4.1411190162        0.6172669049       -2.2506061331
 C          3.0236533860        1.3359226257       -1.8807508427
 C          2.3737496577        1.0662699141       -0.6786432219
 C          1.1479181752        1.8050856549       -0.3237609020
 C          1.1359458376        3.1911409905       -0.3304414819
 C         -0.0199544189        3.8834330419        0.0273938004
 C         -0.0188250245        5.2975310481        0.0371881861
 N         -0.0175395590        6.4435799689        0.0447999374
 C         -1.1769517700        3.1878901620        0.3738405338
 C         -1.1913668965        1.8012362180        0.3523808336
 C         -2.4243592563        1.0654911731        0.6870217754
 C         -2.9132204689        0.0739035438       -0.1614448454
 C         -4.0511829837       -0.6315985211        0.1700039672
 C         -4.7194635467       -0.3498995388        1.3616714756
 C         -5.8821816458       -1.0759898717        1.7090176779
 N         -6.8257824076       -1.6623735469        1.9904878366
 C         -4.2468517946        0.6543085594        2.2066307604
 C         -3.1096536969        1.3556370515        1.8647755940
 C         -0.0213741454        1.1068570808        0.0125458749
 N         -0.0179944493       -0.3011683929        0.0071247328
 C         -0.1635867319       -1.0182130187        1.1981583097
 C         -0.3107202511       -0.3903032599        2.4276603636
 C         -0.4699086437       -1.1328438141        3.5878962403
 C         -0.4664252185       -2.5116795121        3.5377007144
 C         -0.2713976270       -3.1525341774        2.3232423427
 C         -0.1103200532       -2.4171100967        1.1637191081
 O          0.1261485988       -3.1170627166        0.0077327762
 C          0.2904718441       -2.3982635365       -1.1486781538
 C          0.5303453157       -3.1120629935       -2.3081182312
 C          0.6606895826       -2.4529415963       -3.5215261816
 C          0.5191804750       -1.0812424472       -3.5715598783
 C          0.2818937467       -0.3603648571       -2.4111274879
 C          0.2005339159       -1.0016570374       -1.1822990020
 C          2.8813719606        0.0828369561        0.1680827584
 C          3.9999277872       -0.6398103096       -0.1913169040
 H          4.6388726389        0.8185320039       -3.1873239316
 H          2.6359541249        2.1014386234       -2.5367505231
 H          2.0328600833        3.7367239966       -0.5840849323
 H         -2.0739556224        3.7320867137        0.6301144716
 H         -2.4105205482       -0.1354009051       -1.0943156998
 H         -4.4288627207       -1.4010832601       -0.4866808855
 H         -4.7733558152        0.8740636450        3.1232972157
 H         -2.7357499656        2.1250503945        2.5242947767
 H         -0.2875878306        0.6867442167        2.4854912767
 H         -0.5904258430       -0.6199571650        4.5294052165
 H         -0.5964164881       -3.0941275080        4.4355993723
 H         -0.2331460537       -4.2276928505        2.2550260287
 H          0.6063156462       -4.1852624050       -2.2407797164
 H          0.8543753720       -3.0177756759       -4.4192224372
 H          0.5873298597       -0.5581824898       -4.5127331821
 H          0.1496924153        0.7093650692       -2.4658298404
 H          2.4065005504       -0.1084083664        1.1195004878
 H          4.3908958454       -1.4048450665        0.4627587797
