  56
  -95.1656098034000       0.530263076149767      !
 N          7.0099077136       -1.5956929476        0.7051678484
 C          6.0273646360       -1.0107142048        0.6278385116
 C          4.8162725070       -0.2869934208        0.5317215244
 C          4.6795752239        0.7175787200       -0.4263444721
 C          3.4922466574        1.4124954401       -0.5229366196
 C          2.4261345608        1.1144730035        0.3224850490
 C          1.1447719007        1.8280183476        0.1694629645
 C          1.1076795844        3.2136449266        0.1687529678
 C         -0.1096557013        3.8817630624        0.0457377842
 C         -0.1418029657        5.2953912423        0.0655443186
 N         -0.1673878067        6.4410702383        0.0814431939
 C         -1.2947288865        3.1625340555       -0.0983430568
 C         -1.2707456281        1.7763028431       -0.1339141706
 C         -2.5201210445        1.0158303523       -0.3191657565
 C         -2.6134501742        0.0292501599       -1.2990004956
 C         -3.7749104611       -0.6994044121       -1.4494088750
 C         -4.8652077631       -0.4463494178       -0.6167987375
 C         -6.0552572088       -1.1962242982       -0.7625379368
 N         -7.0209332271       -1.8019047199       -0.8811748482
 C         -4.7856795144        0.5526381259        0.3534852988
 C         -3.6207246477        1.2772630902        0.4940019940
 C         -0.0475331454        1.1060570724        0.0111894196
 N         -0.0130976208       -0.3014924918       -0.0027735626
 C         -0.6023697918       -1.0384894113        1.0284901954
 C         -1.2361339208       -0.4314561035        2.1043376893
 C         -1.8252010312       -1.1937027341        3.1017517067
 C         -1.7735910689       -2.5713997092        3.0469150064
 C         -1.1015114023       -3.1908258707        2.0037181159
 C         -0.5108430849       -2.4356741202        1.0076531244
 O          0.1774294091       -3.1143873407        0.0341107107
 C          0.7701941587       -2.3758505046       -0.9579346122
 C          1.4632450226       -3.0683006885       -1.9334055155
 C          2.0485503837       -2.3891253229       -2.9916720014
 C          1.9099040126       -1.0192963305       -3.0835004804
 C          1.2186903070       -0.3197427611       -2.1060439644
 C          0.6719151090       -0.9805323135       -1.0141242875
 C          2.5783273392        0.1268390686        1.2936607487
 C          3.7626103541       -0.5722066618        1.4002587448
 H          5.5025412937        0.9408124698       -1.0886133631
 H          3.3793861860        2.1813553831       -1.2731218918
 H          2.0203310784        3.7773653402        0.2942022660
 H         -2.2310942104        3.6882890123       -0.2134249186
 H         -1.7789488714       -0.1579639056       -1.9587899036
 H         -3.8464751521       -1.4650020495       -2.2075134165
 H         -5.6358604718        0.7501577232        0.9890594643
 H         -3.5537460561        2.0426860726        1.2532173596
 H         -1.2600574717        0.6448414808        2.1744944007
 H         -2.3183873396       -0.6969370082        3.9227312077
 H         -2.2355466653       -3.1692059719        3.8160639499
 H         -1.0171462576       -4.2640888459        1.9482931289
 H          1.5286734073       -4.1410187332       -1.8493932151
 H          2.5927117349       -2.9372981828       -3.7438722601
 H          2.3333833293       -0.4812166024       -3.9172742627
 H          1.0966969558        0.7484099998       -2.2006957267
 H          1.7703640386       -0.0862271843        1.9785486243
 H          3.8792230267       -1.3405039803        2.1499719677
  56
  -95.1654952683000       0.469736923850233      !
 N          6.7678765007       -1.5943105231        2.0400603230
 C          5.8295220361       -1.0072647151        1.7426782900
 C          4.6724276154       -0.2809335663        1.3776335336
 C          4.0301056234       -0.5526510007        0.1693575023
 C          2.8920981620        0.1468986206       -0.1744525289
 C          2.3777325547        1.1216599524        0.6782957472
 C          1.1307654690        1.8339542620        0.3437236138
 C          1.0865718184        3.2194368757        0.3663695355
 C         -0.0883319627        3.8898655308        0.0292798416
 C         -0.1172718815        5.3035724159        0.0344995805
 N         -0.1404944816        6.4493581543        0.0374581893
 C         -1.2331568240        3.1722242675       -0.3132237375
 C         -1.2150851611        1.7858690475       -0.3079906737
 C         -2.4299463636        1.0221396265       -0.6468971385
 C         -3.1181454728        1.2983140478       -1.8263222876
 C         -4.2257424282        0.5579223325       -2.1826366537
 C         -4.6654886488       -0.4715948794       -1.3505282294
 C         -5.7925791225       -1.2429964958       -1.7169408179
 N         -6.7074293047       -1.8658879401       -2.0147106611
 C         -3.9986615263       -0.7356704513       -0.1539701953
 C         -2.8905393763        0.0091748668        0.1921094887
 C         -0.0258877125        1.1132237094        0.0111086600
 N          0.0067403202       -0.2937826655       -0.0072493842
 C          0.2392287551       -1.0162524216        1.1665961973
 C          0.3679895692       -0.3974110636        2.4028429284
 C          0.6254600895       -1.1415788009        3.5441707530
 C          0.7377389077       -2.5147870214        3.4689563341
 C          0.5554872148       -3.1512722998        2.2502685291
 C          0.2964109870       -2.4140115121        1.1097094621
 O          0.0774839782       -3.1125733230       -0.0502290500
 C         -0.1759359592       -2.3909781980       -1.1888674281
 C         -0.3983248587       -3.1052793228       -2.3517351630
 C         -0.6115409697       -2.4420666255       -3.5510446584
 C         -0.5667398354       -1.0633822203       -3.5844786286
 C         -0.3467301538       -0.3423091974       -2.4206668248
 C         -0.1879984059       -0.9909719101       -1.2033016200
 C          3.0416976932        1.4077668936        1.8692905077
 C          4.1783659890        0.7120030131        2.2238086758
 H          4.4262917164       -1.3113244798       -0.4891761807
 H          2.4068631868       -0.0559051284       -1.1182272560
 H          1.9736708471        3.7827494525        0.6157190844
 H         -2.1450010067        3.6983121008       -0.5545549841
 H         -2.7677297244        2.0863046730       -2.4767623672
 H         -4.7526120726        0.7648569632       -3.1021246859
 H         -4.3527956369       -1.5235678295        0.4939415188
 H         -2.3874262669       -0.1882131624        1.1275475436
 H          0.2555420700        0.6729366839        2.4801151547
 H          0.7319832621       -0.6351125980        4.4908398059
 H          0.9471847397       -3.0977180576        4.3513364439
 H          0.6040570053       -4.2246788170        2.1638086515
 H         -0.3939801547       -4.1818555032       -2.2978753003
 H         -0.7921547184       -3.0075917436       -4.4511437412
 H         -0.6976162967       -0.5341786786       -4.5155498141
 H         -0.2873355762        0.7340314606       -2.4659648660
 H          2.6494519567        2.1671512759        2.5297873496
 H          4.6862021536        0.9253016115        3.1524571097
