  88
       -145.46508975
 O         -3.8485566506       -0.8995382029        1.7289748399
 C         -3.5722161670       -1.2208061700        0.5611856025
 C         -2.1953141574       -1.5120057312        0.1751086751
 C         -1.2851752420       -1.7428722357        1.2228244032
 C          0.0279433654       -2.0342752508        0.9663743702
 C          0.4998604478       -2.0612075491       -0.3497932519
 N          1.8764058395       -2.3249983435       -0.5673294875
 C          2.7294009872       -1.3675723801       -1.1052658125
 C          2.2610403966       -0.2233414207       -1.7438590284
 C          3.1415980919        0.7083750416       -2.2654405354
 C          4.5080737537        0.5257279063       -2.1557179042
 C          4.9941416888       -0.5990438242       -1.5114773728
 C          4.1197823800       -1.5379623369       -0.9908969632
 O          4.6749783600       -2.6069887799       -0.3470173375
 C          3.8301159399       -3.5897229206        0.0876557994
 C          4.4031713921       -4.7193488900        0.6463738212
 C          3.6025297439       -5.7608716049        1.0852630823
 C          2.2276253067       -5.6751625367        0.9451700420
 C          1.6480856819       -4.5475776178        0.3935982619
 C          2.4349863819       -3.4754087654       -0.0239356171
 C         -0.3935274424       -1.8355955074       -1.4001861797
 C         -1.7218558249       -1.5729088833       -1.1436438085
 C         -4.6614838927       -1.4645160170       -0.4139758159
 C         -4.6627196642       -2.5778723996       -1.2448365531
 C         -5.7324740495       -2.8208332085       -2.0884545793
 C         -6.8134123324       -1.9558521079       -2.1043982551
 C         -6.8259828827       -0.8489542178       -1.2732706062
 C         -5.7616147539       -0.5922145067       -0.4217407116
 C         -5.7555223683        0.5940801362        0.4453181268
 C         -6.8088335019        0.8557233916        1.3092329043
 C         -6.7858574726        1.9677928639        2.1331252367
 C         -5.7060619414        2.8335297544        2.0974323834
 C         -4.6466554769        2.5847871827        1.2424879521
 C         -4.6558278006        1.4661105078        0.4192607972
 C         -3.5755274884        1.2162098155       -0.5652153014
 O         -3.8619289026        0.9016491415       -1.7317763109
 C         -2.1949765152        1.4959506085       -0.1844170036
 C         -1.7185578985        1.5545058528        1.1333659774
 C         -0.3893481911        1.8145593528        1.3869867571
 C          0.5011574216        2.0415608313        0.3343618222
 N          1.8760850064        2.3133471900        0.5507925125
 C          2.7339988679        1.3643176491        1.0945928515
 C          2.2716671630        0.2100321845        1.7194840141
 C          3.1569238430       -0.7124556362        2.2492544582
 C          4.5222720390       -0.5101866611        2.1614356509
 C          5.0025781469        0.6241164996        1.5296336231
 C          4.1234089646        1.5534631566        1.0002025486
 O          4.6728852865        2.6325207659        0.3681805195
 C          3.8209005220        3.6036478398       -0.0785774846
 C          4.3864009817        4.7408330610       -0.6296890137
 C          3.5781936444        5.7718416276       -1.0793780463
 C          2.2029130923        5.6683897464       -0.9569525483
 C          1.6309263271        4.5334491608       -0.4126145875
 C          2.4259992675        3.4711929373        0.0147279274
 C          0.0271303673        2.0129481807       -0.9808834302
 C         -1.2867841221        1.7224784052       -1.2345563727
 H         -1.6589324385       -1.6983868098        2.2345607341
 H          0.7084609222       -2.2505917693        1.7764885814
 H          1.1988135733       -0.0623522064       -1.8166080898
 H          2.7558341407        1.5851741578       -2.7639204767
 H          5.1934810694        1.2540505375       -2.5588203249
 H          6.0521333424       -0.7684423799       -1.3942558047
 H          5.4776954070       -4.7623321805        0.7251668417
 H          4.0544992383       -6.6368107399        1.5225675554
 H          1.5977067977       -6.4906125633        1.2645747996
 H          0.5772944424       -4.4893729564        0.2790971497
 H         -0.0415430977       -1.8928431503       -2.4201930475
 H         -2.3980390435       -1.3726955350       -1.9606141273
 H         -3.8330728946       -3.2697464688       -1.2126690137
 H         -5.7222775314       -3.6891700958       -2.7312989197
 H         -7.6485376954       -2.1440053917       -2.7633331392
 H         -7.6615465841       -0.1639866824       -1.2917478498
 H         -7.6440817334        0.1709957874        1.3426698113
 H         -7.6124517652        2.1598965993        2.8016180750
 H         -5.6882862372        3.7063675889        2.7339340919
 H         -3.8170973993        3.2759647667        1.1955211413
 H         -2.3937179352        1.3553007928        1.9514348280
 H         -0.0342815989        1.8698243953        2.4060318758
 H          1.2106830229        0.0347584411        1.7753024948
 H          2.7757606730       -1.5976376774        2.7362666139
 H          5.2114597265       -1.2308194467        2.5716521891
 H          6.0598049806        0.8083802551        1.4292985912
 H          5.4610199729        4.7983540253       -0.6934033287
 H          4.0243328965        6.6535458808       -1.5108440311
 H          1.5665239700        6.4753360975       -1.2847881483
 H          0.5597343390        4.4622106246       -0.3116133856
 H          0.7062886878        2.2285182283       -1.7921693877
 H         -1.6630463047        1.6776618598       -2.2453242285
