88
 energy: -145.467623756008 gnorm: 0.000118404180 xtb: 6.7.1 (edcfbbe)
O           -3.84793571569308       -0.88536375716315        1.73392401361490
C           -3.57025809955707       -1.20688893464513        0.56496919772256
C           -2.19339000457201       -1.49979939878582        0.18036040385073
C           -1.28270298061936       -1.72746194974708        1.22723289713351
C            0.03014890274436       -2.02097403531990        0.96893555836318
C            0.49903615592438       -2.05272467896573       -0.34740671523996
N            1.87500312830802       -2.31782804917139       -0.56770760651379
C            2.72719322852701       -1.36076488507900       -1.10858559974756
C            2.25758772910791       -0.21552050670642       -1.74395081198593
C            3.13692597845610        0.71489416775968       -2.27014422894780
C            4.50346747761543        0.52905880647358       -2.16880665713579
C            4.99071902300206       -0.59718532226588       -1.52784955279556
C            4.11757266803683       -1.53394624628296       -1.00183215699145
O            4.67445856141113       -2.60475312680952       -0.36144775023730
C            3.82961444249696       -3.58576727051910        0.07811486951817
C            4.40354350444638       -4.71670851090451        0.63317183984108
C            3.60347921863790       -5.75675221284814        1.07675974649947
C            2.22823195516542       -5.66824881060320        0.94491387564963
C            1.64791468812452       -4.53922620232244        0.39640818791142
C            2.43442500651141       -3.46900119184793       -0.02553455844342
C           -0.39541629026741       -1.83051082802850       -1.39674730359982
C           -1.72344574906504       -1.56597742504018       -1.13871301159735
C           -4.66091287415182       -1.46710542070554       -0.40491203306078
C           -4.65690737549048       -2.59064486919171       -1.22140065455694
C           -5.72418544912409       -2.84700959748392       -2.06432408949310
C           -6.80723668359445       -1.98529740451808       -2.09305046043151
C           -6.82504616657162       -0.86868030553091       -1.27502588706020
C           -5.76378758399025       -0.59883918582330       -0.42371165037068
C           -5.76297770212824        0.59431587238758        0.43381522879888
C           -6.82369213671595        0.86493513626486        1.28551102405458
C           -6.80415070203056        1.98076116807858        2.10459194249099
C           -5.71976373860579        2.84082057394258        2.07657178205949
C           -4.65309758722818        2.58382984678492        1.23311497044285
C           -4.65888012399825        1.46110382621504        0.41540791287636
C           -3.56949894714580        1.20069099738617       -0.55556829156357
O           -3.84871730699867        0.87717834730490       -1.72387199592296
C           -2.19239800064195        1.49624300246203       -0.17422158314433
C           -1.71900478175356        1.56241450624053        1.14366199160193
C           -0.39075767318651        1.82910713619530        1.39834428081220
C            0.50063030293333        2.05338845887207        0.34681339959745
N            1.87688167041239        2.31988150667381        0.56367691846543
C            2.73124425451239        1.36340430623525        1.10217397951377
C            2.26418042747564        0.21701571275272        1.73737193309661
C            3.14553878992043       -0.71266814600250        2.26144724547108
C            4.51168099334708       -0.52496050968829        2.15810878263387
C            4.99642632040352        0.60231074458950        1.51706514669267
C            4.12122322410232        1.53828725133226        0.99305955194695
O            4.67569658576483        2.61005894386671        0.35222374537891
C            3.82887004221673        3.58992957445796       -0.08602171791464
C            4.40051758138886        4.72133789423981       -0.64248217260087
C            3.59850085377063        5.76043490034367       -1.08474541333354
C            2.22361841607369        5.67053058737592       -0.95007218926993
C            1.64556806501573        4.54102072563335       -0.40016753406738
C            2.43399663368778        3.47164103213159        0.02035956169831
C            0.02824138136376        2.02171841805223       -0.96829856485650
C           -1.28476164139893        1.72613215286129       -1.22331394000872
H           -1.65427871707047       -1.68018862136249        2.23967296828866
H            0.71177871183378       -2.23603654560615        1.77824180207463
H            1.19527703758902       -0.05251327308360       -1.81087228104627
H            2.74998759522977        1.59282835798878       -2.76574012863994
H            5.18809116449803        1.25580213981168       -2.57601334004560
H            6.04905139490945       -0.76912140150081       -1.41748429773584
H            5.47830109704036       -4.76201399067287        0.70535058229344
H            4.05634875615179       -6.63356974601066        1.51130653159031
H            1.59827939489854       -6.48207080127605        1.26829576875347
H            0.57661728491258       -4.47901268167191        0.28845410355471
H           -0.04519675463159       -1.89070356410248       -2.41714474511194
H           -2.40151874514234       -1.36831145710450       -1.95479035612757
H           -3.82459268324565       -3.27877794639955       -1.17979208912462
H           -5.70955894043193       -3.72261802467403       -2.69715169519360
H           -7.64047458371113       -2.18390607999195       -2.75129745416841
H           -7.66292131136736       -0.18696963484178       -1.30328077165283
H           -7.66249715430391        0.18434896886078        1.31332516940766
H           -7.63702646757067        2.17999950716603        2.76309901009770
H           -5.70372415978923        3.71579628891973        2.71024186131887
H           -3.81995644185088        3.27096670415498        1.19188917644863
H           -2.39454943400432        1.36312070717024        1.96144252092345
H           -0.03795985029771        1.88921450440973        2.41786532126844
H            1.20218485041294        0.05261138567109        1.80585981333459
H            2.76050649404103       -1.59154175467498        2.75687299893704
H            5.19789662450473       -1.25108253495531        2.56373133457722
H            6.05435516264181        0.77566349419496        1.40503898484059
H            5.47508873437817        4.76774508757208       -0.71676007631588
H            4.04959177120599        6.63760668487964       -1.52043000120268
H            1.59218151338217        6.48364740929418       -1.27233341933730
H            0.57455500274873        4.47978072644713       -0.29000286059216
H            0.70738769440118        2.23830805433938       -1.77927005016663
H           -1.65885611853597        1.67876098286921       -2.23482063721676
