  75
  -108.579345270000       0.727951954516743      !
 C          3.7883687781        2.3840180156        0.6832392854
 C          3.8651882022        1.2814481600       -0.3887702352
 C          5.1796311257        1.3985304786       -1.1828938519
 C          2.7036935187        1.4549063428       -1.3456214136
 C          2.5531674745        2.6503262621       -2.0346165123
 C          1.5135719360        2.8591276938       -2.9222046551
 C          0.5961454539        1.8457754668       -3.1446128052
 C          0.7261694970        0.6461832530       -2.4798243620
 C          1.7681654225        0.4369230596       -1.5683371882
 N          1.8675983728       -0.7812762047       -0.9247070321
 C          0.7889032405       -1.6896785026       -1.0476837130
 C          0.8740846995       -2.8801115976       -1.7387325486
 C         -0.2364057742       -3.7227392484       -1.7756953034
 C         -1.4179603219       -3.3752193696       -1.0820566820
 C         -2.5509796868       -4.1870517303       -0.9692079296
 C         -3.6510226252       -3.7828875447       -0.2087810828
 C         -3.6639075541       -2.5585781981        0.4188730489
 C         -2.5612083191       -1.6977149930        0.3000534900
 N         -2.5350463095       -0.3814361921        0.8101937540
 C         -1.4114258120       -0.0346025017        1.5325985994
 C         -0.6751038815       -1.0508770148        2.1709876430
 C          0.5107995418       -0.7745082413        2.8086284183
 C          0.9843192878        0.5279283831        2.8444838018
 C          0.2223980313        1.5444069317        2.2945884741
 C         -0.9818860743        1.2942294276        1.6526442361
 C         -1.7995899783        2.4414839430        1.1078691644
 C         -2.1442071482        3.3897856709        2.2721370486
 C         -0.9674980286        3.1792324047        0.0415317117
 C         -3.0782421469        1.9593094933        0.4562151260
 C         -3.9737286331        2.8948936998       -0.0460181879
 C         -5.1180912670        2.5249542977       -0.7262319673
 C         -5.3646558524        1.1812437109       -0.9523513820
 C         -4.4931767944        0.2322601141       -0.4660583685
 C         -3.3619453055        0.5971857713        0.2752780139
 C         -1.4038568258       -2.1177155883       -0.4065936227
 N         -0.3341845955       -1.3315452401       -0.4006205791
 C          2.8415482413       -1.0200512061        0.0276160708
 C          2.8375198196       -2.2284938143        0.7335235610
 C          3.8033880241       -2.5034746380        1.6756544943
 C          4.7979453025       -1.5752290021        1.9341524020
 C          4.7961645798       -0.3736225197        1.2510959797
 C          3.8304918561       -0.0669016533        0.3018354785
 H          3.8216633467        3.3706817435        0.2296211533
 H          4.6154874331        2.3059064772        1.3831667114
 H          2.8564547591        2.2865380176        1.2358103091
 H          6.0389734843        1.2912892364       -0.5265461873
 H          5.2256366802        0.6177012286       -1.9396224267
 H          5.2462924411        2.3623866825       -1.6801891648
 H          3.2664011891        3.4462546423       -1.8813645718
 H          1.4245824554        3.8020485731       -3.4398437877
 H         -0.2182408383        1.9878657575       -3.8393480590
 H          0.0185677191       -0.1465044969       -2.6636861648
 H          1.7921115567       -3.1414835139       -2.2426540693
 H         -0.2021101186       -4.6444698103       -2.3346957870
 H         -2.5442750116       -5.1624964721       -1.4318281112
 H         -4.4935917719       -4.4495893092       -0.1009190786
 H         -4.4938596488       -2.2652124051        1.0447426231
 H         -1.0582187844       -2.0594267688        2.1564725939
 H          1.0739118615       -1.5704031740        3.2712487536
 H          1.9289348744        0.7507441891        3.3173038084
 H          0.5816909625        2.5602100386        2.3686937080
 H         -2.7594592247        2.8692715191        3.0036511653
 H         -2.6904201484        4.2594794104        1.9189778940
 H         -1.2419498745        3.7362803115        2.7677121868
 H         -0.6902882586        2.4899418350       -0.7534576537
 H         -0.0560713890        3.5837754348        0.4729475058
 H         -1.5338880257        3.9982664128       -0.3935072277
 H         -3.7699963057        3.9467710636        0.0840993786
 H         -5.7967068329        3.2781720066       -1.0964826333
 H         -6.2335306042        0.8714283612       -1.5131101665
 H         -4.6792551577       -0.8082429775       -0.6732882405
 H          2.0602445946       -2.9498439471        0.5371334846
 H          3.7811760459       -3.4431592338        2.2072711883
 H          5.5651836176       -1.7821396337        2.6647480504
 H          5.5729614221        0.3436993936        1.4697457608
  75
  -108.578110680300       0.197117224025234      !
 C          5.2075809547        1.4177978011       -0.7637880745
 C          3.6991140873        1.3679873933       -1.0683001215
 C          3.2236733134        2.7130199106       -1.6509618259
 C          2.9524390348        1.1119233035        0.2236606762
 C          3.1033172637        1.9917907298        1.2866070858
 C          2.4584690045        1.7994758249        2.4954077664
 C          1.6595263590        0.6817818103        2.6673217217
 C          1.4982567852       -0.2112625181        1.6310924710
 C          2.1079753581        0.0049674781        0.3864830286
 N          1.8818800890       -0.8827725285       -0.6512910448
 C          0.8871434228       -1.8647174761       -0.4608232597
 C          1.1427221765       -3.2204344092       -0.5045971959
 C          0.1128476660       -4.1151410305       -0.2224024928
 C         -1.1670551933       -3.6359120609        0.1389231032
 C         -2.2598934360       -4.4404205922        0.4683710825
 C         -3.4772467481       -3.8773491540        0.8635533630
 C         -3.6248166577       -2.5116928192        0.9411427860
 C         -2.5600358140       -1.6739181745        0.5843089325
 N         -2.6182119057       -0.2635016968        0.7039754995
 C         -2.3708626458        0.3153558117        1.9360046098
 C         -2.4549674967       -0.4696204319        3.0935130934
 C         -2.2199781234        0.0719198973        4.3370708500
 C         -1.8870859736        1.4119561356        4.4533780282
 C         -1.7870078296        2.1871840854        3.3135796352
 C         -2.0206626082        1.6682113583        2.0470286638
 C         -1.8699423148        2.5649888964        0.8371251576
 C         -2.8719270083        3.7293013672        0.9570589958
 C         -0.4271600274        3.1013990911        0.7914265623
 C         -2.1364063903        1.8193985682       -0.4512049462
 C         -2.0306045172        2.4828938305       -1.6657427824
 C         -2.2656054539        1.8459405116       -2.8701560182
 C         -2.6380251222        0.5103570697       -2.8745525378
 C         -2.7540910566       -0.1698794490       -1.6850678744
 C         -2.4836457891        0.4615701665       -0.4617872307
 C         -1.3242118931       -2.2145715152        0.1534389798
 N         -0.3441923903       -1.3856485739       -0.1846895152
 C          2.5102899196       -0.7428871674       -1.8757648656
 C          2.2135583976       -1.6297529378       -2.9186413762
 C          2.8553249512       -1.5396188335       -4.1334523520
 C          3.8042664738       -0.5523765476       -4.3409564863
 C          4.0647787929        0.3564461456       -3.3325621297
 C          3.4306501805        0.2911288890       -2.0992610499
 H          5.4324484156        2.1985734585       -0.0429338585
 H          5.7808096134        1.6152008049       -1.6648470572
 H          5.5329377257        0.4650089657       -0.3506842552
 H          3.7515386064        2.9434832760       -2.5723085237
 H          2.1580520353        2.6625935973       -1.8680035592
 H          3.3934848441        3.5220097618       -0.9457175118
 H          3.7390447450        2.8568927805        1.1738144029
 H          2.5918895498        2.5080127693        3.2985862447
 H          1.1624352690        0.5013040601        3.6083522389
 H          0.8960723020       -1.0897396948        1.7880542767
 H          2.1410350003       -3.5709940204       -0.7200839907
 H          0.3017937519       -5.1770688072       -0.2156590821
 H         -2.1603152729       -5.5131944095        0.3974547292
 H         -4.3070590700       -4.5240770095        1.1063663946
 H         -4.5598443489       -2.0645433110        1.2447267711
 H         -2.6981422478       -1.5162652142        3.0036496128
 H         -2.2905094743       -0.5520728437        5.2153934575
 H         -1.6980819261        1.8473302573        5.4229908517
 H         -1.5133021689        3.2260458904        3.4192637239
 H         -3.8869430631        3.3406341320        1.0140582489
 H         -2.8049229128        4.3882186933        0.0958039664
 H         -2.6768869220        4.3150235010        1.8510646650
 H          0.2640651827        2.2762457802        0.6385319675
 H         -0.1635537183        3.5989631950        1.7202499302
 H         -0.3047444173        3.8114188695       -0.0218870240
 H         -1.7542978385        3.5265335253       -1.6797432982
 H         -2.1685564983        2.3899558776       -3.7975479269
 H         -2.8431315351        0.0044990120       -3.8059620675
 H         -3.0582747304       -1.2048114643       -1.6827936431
 H          1.4607985289       -2.3868446958       -2.7691808706
 H          2.6125206937       -2.2387475189       -4.9193930378
 H          4.3225018774       -0.4783095125       -5.2847783459
 H          4.7792872284        1.1433396804       -3.5211376119
  75
  -108.575991370600       2.092942378556785E-002 !
 C          1.9569525369        1.3853189933       -3.8595343018
 C          3.0920407338        1.5882437674       -2.8341696885
 C          3.9970841369        2.7105585167       -3.3412981065
 C          3.8324181969        0.2763118608       -2.6654928844
 C          5.0920899152        0.0088310596       -3.1752892930
 C          5.6838083346       -1.2314444206       -3.0002304819
 C          5.0243306036       -2.2219723819       -2.2904306100
 C          3.7742098670       -1.9734708679       -1.7628935318
 C          3.1670925449       -0.7347727996       -1.9590936003
 N          1.9327848429       -0.4415978449       -1.3705497062
 C          0.8713766241       -1.3327242881       -1.4081929629
 C          0.8332354645       -2.3867927541       -2.3099052129
 C         -0.2729686043       -3.2280361182       -2.3217427923
 C         -1.3571924420       -2.9903186611       -1.4537045797
 C         -2.5163097035       -3.7704443446       -1.4270380035
 C         -3.5676784349       -3.4694991886       -0.5494615221
 C         -3.4726366498       -2.4026140074        0.3012635195
 C         -2.3300822848       -1.5643998053        0.2815799942
 N         -2.2464795053       -0.5257949055        1.2246513432
 C         -2.2934465639       -0.8521044665        2.5683990826
 C         -2.2088751659       -2.1979600627        2.9583987483
 C         -2.3216913794       -2.5630248375        4.2805519624
 C         -2.5063613631       -1.5917747289        5.2514107121
 C         -2.5198584669       -0.2593737692        4.8814396512
 C         -2.3950092769        0.1373587628        3.5569696989
 C         -2.3399532978        1.6107153437        3.2198628116
 C         -3.6889850595        2.2606286947        3.5843394330
 C         -1.2085434520        2.2493899532        4.0472814621
 C         -2.0979388092        1.8386907698        1.7420292816
 C         -1.9443781001        3.1346462216        1.2685036547
 C         -1.8006086218        3.4099572173       -0.0784185630
 C         -1.8791953416        2.3746259012       -0.9947063614
 C         -2.0594558756        1.0828893641       -0.5565778913
 C         -2.1152579161        0.7872551892        0.8128928300
 C         -1.2514523524       -1.8408261656       -0.6034233902
 N         -0.1865634221       -1.0487071260       -0.6163111264
 C          1.8541150107        0.8355241290       -0.8013350437
 C          1.2615869694        1.0482802991        0.4382840962
 C          1.2527078168        2.3137427614        0.9891090409
 C          1.8471539778        3.3674054486        0.3186213390
 C          2.4564920783        3.1530063311       -0.9065377844
 C          2.4716607400        1.8953975533       -1.4839168830
 H          2.3744573333        1.1052625368       -4.8247836818
 H          1.3947762640        2.3098234739       -3.9745011991
 H          1.2701454587        0.6054000754       -3.5420366906
 H          3.4249465043        3.6261321182       -3.4683222889
 H          4.8147956873        2.8958356484       -2.6482885245
 H          4.4078406952        2.4490260630       -4.3134218802
 H          5.6292417319        0.7659228758       -3.7234262285
 H          6.6629562747       -1.4213916516       -3.4132298581
 H          5.4903318018       -3.1837123824       -2.1366217619
 H          3.2641523480       -2.7262304154       -1.1806679858
 H          1.6458750384       -2.5504196854       -2.9993773218
 H         -0.3069248055       -4.0728110389       -2.9922978455
 H         -2.6090384447       -4.5929434517       -2.1199532892
 H         -4.4593742016       -4.0783451155       -0.5594794356
 H         -4.2782311073       -2.1492120346        0.9745435592
 H         -2.0397103823       -2.9549359434        2.2097860292
 H         -2.2591620116       -3.6050880687        4.5551178882
 H         -2.6122600766       -1.8667189472        6.2895922726
 H         -2.6287067501        0.4882888589        5.6519967108
 H         -3.9229806747        2.0992247099        4.6334088546
 H         -4.4850781191        1.8254070770        2.9832744506
 H         -3.6630125506        3.3305870226        3.3964015438
 H         -0.2792256422        1.7069453749        3.8849728207
 H         -1.4392584553        2.2180336446        5.1081803147
 H         -1.0587398837        3.2883988073        3.7696294554
 H         -1.9411434976        3.9594389105        1.9650434552
 H         -1.6591964337        4.4270904200       -0.4101546655
 H         -1.8155016861        2.5766653354       -2.0530368376
 H         -2.1721287871        0.2904939713       -1.2755445108
 H          0.8190045592        0.2156983702        0.9592695095
 H          0.7977199048        2.4757110363        1.9528869106
 H          1.8464397977        4.3569124987        0.7509354209
 H          2.9199215254        3.9871672896       -1.4082943692
  75
  -108.575710483200       1.554785065945750E-002 !
 C          1.4875513181        2.8343917290       -1.2543741736
 C          2.8261807890        2.0678354553       -1.3668219921
 C          3.9717793065        3.0788772561       -1.2951769559
 C          2.7827471942        1.3199251329       -2.6840965692
 C          3.3418531649        1.8211196893       -3.8478700729
 C          3.1054797912        1.2327525182       -5.0794366981
 C          2.2456224185        0.1523882176       -5.1641598016
 C          1.7016949465       -0.3864164614       -4.0170692887
 C          2.0072500212        0.1479442995       -2.7627675461
 N          1.5634119905       -0.4564286867       -1.5986019301
 C          0.5622233446       -1.4452160863       -1.5747432740
 C          0.6367877001       -2.6603717141       -2.2256230920
 C         -0.4009206328       -3.5773600533       -2.0740564794
 C         -1.4903711509       -3.2871519235       -1.2231609166
 C         -2.5794526837       -4.1333170493       -1.0048873965
 C         -3.5894103122       -3.7891606610       -0.0998980129
 C         -3.5163272138       -2.6179923080        0.6152637108
 C         -2.4475010220       -1.7313941942        0.4062248403
 N         -2.2664255869       -0.5747182354        1.1955580050
 C         -1.8513199453       -0.7044935334        2.5103351443
 C         -1.8505633941       -1.9667471053        3.1195226127
 C         -1.4724119996       -2.1227854030        4.4340931374
 C         -1.0727449826       -1.0213876325        5.1728395756
 C         -1.0353658965        0.2202389336        4.5673738057
 C         -1.4090407662        0.4064215837        3.2429947188
 C         -1.2969356482        1.7858856409        2.6309112579
 C         -2.1996628582        2.7547249779        3.4188990867
 C          0.1726978231        2.2396201109        2.7067503840
 C         -1.7274447839        1.7939276373        1.1815604621
 C         -1.6795957506        2.9768663666        0.4581418563
 C         -2.0854484620        3.0441945725       -0.8624798483
 C         -2.5880153917        1.9089419778       -1.4789235212
 C         -2.6537203811        0.7247482639       -0.7822650776
 C         -2.1953413879        0.6374011274        0.5417065880
 C         -1.4434332085       -2.0239611883       -0.5524809151
 N         -0.4846439156       -1.1364019130       -0.7759277097
 C          2.1316766207       -0.1214638006       -0.3782408214
 C          2.0258377334       -1.0070780963        0.6992298077
 C          2.6129511915       -0.7135248725        1.9115305411
 C          3.3454042246        0.4517685675        2.0569129722
 C          3.4607589201        1.3290717812        0.9902494822
 C          2.8527875214        1.0726459922       -0.2278422128
 H          1.3843722889        3.5311602614       -2.0837030521
 H          1.4542882153        3.3890531922       -0.3192242563
 H          0.6457474842        2.1460291635       -1.2736088531
 H          3.9345890383        3.6282470511       -0.3587269811
 H          4.9351026635        2.5802425532       -1.3760091416
 H          3.8812973261        3.8112885478       -2.0923769395
 H          3.9669541143        2.6982112000       -3.8136681164
 H          3.5624651091        1.6406682960       -5.9681159774
 H          2.0032844708       -0.2790328842       -6.1237670749
 H          1.0230393823       -1.2196151704       -4.0919090629
 H          1.5147393592       -2.9157759652       -2.7992428065
 H         -0.3473206225       -4.5421438085       -2.5537421746
 H         -2.6488316600       -5.0531943667       -1.5658777481
 H         -4.4306573689       -4.4524345867        0.0346984846
 H         -4.2870840546       -2.3427073558        1.3200850577
 H         -2.1411596455       -2.8317195543        2.5459475936
 H         -1.4845398802       -3.1055271318        4.8809737464
 H         -0.7785918830       -1.1303498098        6.2056090161
 H         -0.6988947943        1.0659841059        5.1476026543
 H         -3.2322532719        2.4133920701        3.3797385044
 H         -2.1535328127        3.7554230593        2.9989935275
 H         -1.8946176982        2.8073906707        4.4600934949
 H          0.7934807622        1.5768288953        2.1082537996
 H          0.5358030798        2.2180779153        3.7302465867
 H          0.2830861284        3.2522481587        2.3290933301
 H         -1.3143870863        3.8757931305        0.9311742006
 H         -2.0235438950        3.9779635619       -1.4003392951
 H         -2.9337989966        1.9508651942       -2.5007512340
 H         -3.0718055886       -0.1512723010       -1.2514758016
 H          1.4910494287       -1.9351774480        0.5774972417
 H          2.5079019458       -1.4010274014        2.7372760299
 H          3.8213931563        0.6841202485        2.9974273266
 H          4.0290306312        2.2336220459        1.1326591787
  75
  -108.575660133600       1.474114731870570E-002 !
 C          4.2463200373        2.5941547425       -1.4140292507
 C          3.1481302368        1.5328654368       -1.3291090281
 C          1.8637175585        2.1031351354       -1.9757664067
 C          2.7915220009        1.1725928911        0.0961271253
 C          2.9995519837        2.0243134107        1.1687461613
 C          2.5303266141        1.7207189992        2.4371122256
 C          1.8438898108        0.5380631958        2.6503549181
 C          1.6555340425       -0.3426506848        1.6065469502
 C          2.1163384798       -0.0364359768        0.3217600777
 N          1.9417858826       -0.9525098182       -0.7056925980
 C          0.9510542051       -1.9319704063       -0.5081087251
 C          1.1788736543       -3.2931304135       -0.4716532762
 C          0.1171795189       -4.1528308014       -0.1982684736
 C         -1.1636063668       -3.6340068763        0.0951725599
 C         -2.2899066006       -4.4049795827        0.3895782378
 C         -3.5063842150       -3.8031714095        0.7293444875
 C         -3.6121276814       -2.4347695409        0.8037151459
 C         -2.5082925937       -1.6266689813        0.4890294011
 N         -2.5295130268       -0.2243839118        0.6579691721
 C         -2.4770750008        0.3062138616        1.9359299801
 C         -2.6499979424       -0.5329844036        3.0450511643
 C         -2.6262738257       -0.0323233688        4.3273553561
 C         -2.4191306269        1.3212791937        4.5359777727
 C         -2.2162802053        2.1490454801        3.4482333531
 C         -2.2311585618        1.6708719604        2.1445759781
 C         -1.9591234049        2.6265478838        1.0031817446
 C         -3.0520203454        3.7131543143        0.9947131157
 C         -0.5729014835        3.2637464445        1.2114144950
 C         -1.9697542086        1.9210657457       -0.3341896780
 C         -1.7100464770        2.6406890056       -1.4918057184
 C         -1.7315146744        2.0493432765       -2.7419055323
 C         -2.0549909457        0.7061906233       -2.8541620360
 C         -2.3281099167       -0.0281053841       -1.7235925949
 C         -2.2587063702        0.5537498820       -0.4480850169
 C         -1.2801233710       -2.2080843792        0.0822684508
 N         -0.2756600305       -1.4165026875       -0.2654537643
 C          2.7377111922       -0.8913912534       -1.8368920332
 C          2.8117774558       -1.9647449741       -2.7284089721
 C          3.6989726658       -1.9439682178       -3.7840559886
 C          4.5296368049       -0.8528109519       -3.9668693718
 C          4.3965259097        0.2513777283       -3.1410306026
 C          3.4895055024        0.2704259383       -2.0945944761
 H          3.9392697620        3.4996841593       -0.8983626523
 H          4.4286090077        2.8687612432       -2.4492249009
 H          5.1717540239        2.2309719218       -0.9725659256
 H          2.0411875247        2.3280327986       -3.0254399640
 H          1.0466289470        1.3883840232       -1.9080568623
 H          1.5635350632        3.0147766104       -1.4638880570
 H          3.5237041619        2.9553417177        1.0276335690
 H          2.6962659117        2.4105630186        3.2505582208
 H          1.4645316599        0.2940141110        3.6311797567
 H          1.1586720130       -1.2820792232        1.7870502905
 H          2.1787728254       -3.6798888601       -0.5967093708
 H          0.2821410615       -5.2173320180       -0.1398406744
 H         -2.2189197136       -5.4806375187        0.3291880089
 H         -4.3661511649       -4.4230469350        0.9349760358
 H         -4.5437170057       -1.9583085423        1.0715102451
 H         -2.7926349142       -1.5902978392        2.8914547205
 H         -2.7641368293       -0.6997291454        5.1647530556
 H         -2.4025496761        1.7264034514        5.5363925675
 H         -2.0369104302        3.1984791687        3.6264162769
 H         -4.0290617297        3.2550700727        0.8536617452
 H         -2.8867061319        4.4222243355        0.1883563104
 H         -3.0614039044        4.2590748888        1.9340619859
 H          0.1936904775        2.4929337662        1.1811849863
 H         -0.5140998722        3.7685302956        2.1712977094
 H         -0.3626741288        3.9926329014        0.4337507809
 H         -1.4830212125        3.6938649335       -1.4246330395
 H         -1.5128935507        2.6359063626       -3.6212832660
 H         -2.1009905277        0.2354068975       -3.8246014548
 H         -2.6091054734       -1.0651780278       -1.8123009681
 H          2.1593518277       -2.8122275495       -2.5996982366
 H          3.7456713301       -2.7854937675       -4.4588750188
 H          5.2511208085       -0.8414261608       -4.7695662253
 H          5.0105152238        1.1142423525       -3.3405622108
  75
  -108.575532177700       1.287439490153569E-002 !
 C          4.8361516941        2.2394267851       -0.2891874424
 C          3.5751883671        1.3739982049       -0.3176415745
 C          2.3549697203        2.2706716373       -0.0088215369
 C          3.5908270011        0.2824988049        0.7331938231
 C          4.3415719636        0.3570038704        1.8948875515
 C          4.2263365339       -0.5949660595        2.8942812375
 C          3.3340279240       -1.6423708250        2.7465346720
 C          2.5845616058       -1.7479363981        1.5942462130
 C          2.7130712686       -0.8014350922        0.5762019130
 N          2.0025690159       -0.9521386892       -0.6011083592
 C          0.9025828472       -1.8434648712       -0.6302037961
 C          1.0238257086       -3.1662577556       -1.0051722926
 C         -0.1041313256       -3.9848477980       -0.9796041075
 C         -1.3368899245       -3.4743913109       -0.5200105222
 C         -2.5022411605       -4.2369369460       -0.3725642542
 C         -3.6710440761       -3.6708521165        0.1372245479
 C         -3.7087622805       -2.3410642548        0.4840963127
 C         -2.5660434402       -1.5363114127        0.3280938985
 N         -2.5914322469       -0.1500106543        0.5900373679
 C         -1.6236799321        0.3574524364        1.4303746579
 C         -0.8988612987       -0.5232421182        2.2532207876
 C          0.1316258363       -0.0696008204        3.0436620529
 C          0.4557306904        1.2769774449        3.0468718497
 C         -0.3085431044        2.1617314792        2.3054594813
 C         -1.3569412742        1.7327322705        1.5047100785
 C         -2.2063033691        2.7472746662        0.7730605662
 C         -2.8647252959        3.6673445858        1.8187620944
 C         -1.3092227913        3.5681928488       -0.1727402705
 C         -3.2820380942        2.0835973525       -0.0595337539
 C         -4.1608364639        2.8764721040       -0.7854989377
 C         -5.1093722920        2.3348371938       -1.6323291937
 C         -5.1607985593        0.9607235672       -1.7979593260
 C         -4.3054553909        0.1503638941       -1.0856056999
 C         -3.3859788344        0.6885779354       -0.1740284276
 C         -1.3525385963       -2.0973058229       -0.1410954260
 N         -0.2638728325       -1.3307345637       -0.2045152364
 C          2.4327397476       -0.3292550731       -1.7571081638
 C          2.0119359956       -0.7952703333       -3.0045946560
 C          2.5093390870       -0.2378918203       -4.1634594772
 C          3.4399425650        0.7841446030       -4.0921247325
 C          3.8276092950        1.2775073399       -2.8569015879
 C          3.3246189305        0.7533634113       -1.6775337156
 H          4.9538784266        2.7074523789        0.6840128072
 H          4.7614391456        3.0423112728       -1.0173401641
 H          5.7199083246        1.6435799178       -0.5058265742
 H          2.2583971024        3.0454513875       -0.7669247823
 H          1.4417114681        1.6803350694        0.0069745754
 H          2.4752800915        2.7389088075        0.9655820489
 H          5.0305711622        1.1726364778        2.0436494029
 H          4.8244747332       -0.5095052230        3.7890528382
 H          3.2281997680       -2.3831890085        3.5253191164
 H          1.8969147449       -2.5696675447        1.4670735994
 H          1.9869144944       -3.5475652860       -1.3100839529
 H         -0.0414437723       -5.0113871713       -1.3047323897
 H         -2.4700694458       -5.2893404407       -0.6110638325
 H         -4.5461985275       -4.2882597760        0.2740127743
 H         -4.5968584374       -1.9024499566        0.9149356863
 H         -1.1768505910       -1.5642968547        2.2825645060
 H          0.6842022302       -0.7629905744        3.6580612537
 H          1.2788070209        1.6386146795        3.6440926311
 H         -0.0761261127        3.2146145443        2.3574667092
 H         -2.1118974400        4.1560144317        2.4306870163
 H         -3.5106942687        3.0828974153        2.4710582838
 H         -3.4647077828        4.4353556833        1.3391578115
 H         -0.8485274792        2.9103391306       -0.9067903906
 H         -0.5212793292        4.0712066105        0.3802864965
 H         -1.8892361543        4.3194832139       -0.7013540813
 H         -4.1016751126        3.9506579914       -0.6985065342
 H         -5.7822829450        2.9796702508       -2.1765235011
 H         -5.8644859138        0.5193574852       -2.4873831363
 H         -4.3362702085       -0.9152405038       -1.2415664082
 H          1.2973255118       -1.6021899347       -3.0533994955
 H          2.1782578510       -0.6092588754       -5.1216938331
 H          3.8500338020        1.2126678128       -4.9942006671
 H          4.5289634645        2.0955365697       -2.8312359943
  75
  -108.575369465200       1.083800479275568E-002 !
 C          1.3913345569        1.8390770843       -3.4140690420
 C          2.6832159646        1.8588047482       -2.5710264740
 C          3.4589387915        3.1292886763       -2.9177832958
 C          3.4722251605        0.5968591478       -2.8652799595
 C          4.6239678353        0.5532119842       -3.6329229103
 C          5.2799559621       -0.6440788352       -3.8698587336
 C          4.8043396400       -1.8181204481       -3.3108325675
 C          3.6643587351       -1.7974267609       -2.5325544865
 C          2.9791061257       -0.6021190909       -2.3301933396
 N          1.8552311312       -0.5402842370       -1.5001394202
 C          0.7922479960       -1.4239138498       -1.5480143235
 C          0.6586766743       -2.4423326164       -2.4800366682
 C         -0.4684305255       -3.2563632495       -2.4302234941
 C         -1.4816419607       -3.0264107583       -1.4760859418
 C         -2.6500296035       -3.7831944408       -1.3687304128
 C         -3.6244695345       -3.4700317464       -0.4094561669
 C         -3.4562644383       -2.4028101651        0.4311286292
 C         -2.3113243311       -1.5777145958        0.3237501987
 N         -2.1397722129       -0.5320008760        1.2458881471
 C         -2.0606252888       -0.8469147517        2.5919268741
 C         -1.9138770418       -2.1868786575        2.9781216876
 C         -1.8894498271       -2.5439975576        4.3073778776
 C         -1.9996952021       -1.5671872292        5.2828729091
 C         -2.0851201624       -0.2380888523        4.9083335098
 C         -2.0919022701        0.1523360327        3.5764878311
 C         -2.1895890619        1.6142915393        3.1953263780
 C         -3.6653685449        2.0443177102        3.3488063706
 C         -1.3201121203        2.4724908517        4.1259708149
 C         -1.8251644206        1.8203276816        1.7375095028
 C         -1.5398254868        3.0871463445        1.2505453027
 C         -1.3797668857        3.3333938870       -0.1016395823
 C         -1.5956434299        2.3114038267       -1.0089192908
 C         -1.8925328186        1.0455791115       -0.5569599124
 C         -1.9367147831        0.7652170653        0.8152367480
 C         -1.2957951667       -1.8906931920       -0.6221316166
 N         -0.2137086825       -1.1326145492       -0.6924555403
 C          1.8464024416        0.5517182575       -0.6241578645
 C          1.4664999761        0.4046652336        0.7058294165
 C          1.4982978164        1.4925362421        1.5532058646
 C          1.9280596247        2.7217598256        1.0867529790
 C          2.3317727332        2.8618024129       -0.2319557154
 C          2.2989251041        1.7883797945       -1.1044492846
 H          1.6391027834        1.8089882340       -4.4734447193
 H          0.8100485970        2.7363567752       -3.2135179824
 H          0.7776178999        0.9742519141       -3.1774750431
 H          2.8534045992        4.0069175947       -2.7064121911
 H          4.3831536814        3.1900506713       -2.3474113404
 H          3.6940837423        3.1475729598       -3.9790753312
 H          5.0262569223        1.4565190467       -4.0622485601
 H          6.1705393130       -0.6556850133       -4.4798609880
 H          5.3296501529       -2.7483095044       -3.4681188653
 H          3.3151436618       -2.6991581871       -2.0533232062
 H          1.4097684661       -2.6086704351       -3.2340377843
 H         -0.5695868416       -4.0821479137       -3.1175272066
 H         -2.8133257529       -4.5976983060       -2.0580950024
 H         -4.5216753099       -4.0680832076       -0.3515818646
 H         -4.2063887806       -2.1434294235        1.1636052864
 H         -1.8092812601       -2.9458269106        2.2194550697
 H         -1.7823166845       -3.5825143965        4.5816391812
 H         -2.0018156397       -1.8342099678        6.3285404408
 H         -2.1554121687        0.5054441700        5.6860937942
 H         -4.3013659656        1.4497848210        2.6958881495
 H         -3.7824164493        3.0921208725        3.0818725372
 H         -3.9949857133        1.9015423295        4.3755403794
 H         -0.2783788700        2.1697489641        4.0591435216
 H         -1.6424748376        2.3766224969        5.1581997069
 H         -1.3929408076        3.5243295115        3.8689659069
 H         -1.4507723548        3.9188578357        1.9304860772
 H         -1.1331762251        4.3277863851       -0.4417093315
 H         -1.5495203304        2.5023796689       -2.0702197358
 H         -2.1130750431        0.2683507170       -1.2670797261
 H          1.1600417067       -0.5628788204        1.0685008865
 H          1.2076529556        1.3705092685        2.5855556665
 H          1.9589805646        3.5741446295        1.7487298972
 H          2.6698945769        3.8281424156       -0.5700167331
