83
 energy: -134.259083699784 gnorm: 0.000041501796 xtb: 6.7.1 (edcfbbe)
C            6.50103447704283        3.19214613248417        1.29746967030448
C            5.13933057129408        3.00202877625911        1.46144326483833
C            4.57028788090638        1.76253115102464        1.23231027992172
C            5.35087048844341        0.68410848485556        0.81428353499802
C            6.73721276269689        0.88033533423972        0.69030426634426
C            7.30085849356453        2.12389202394077        0.92435030060983
O            7.59359160666826       -0.13734342704798        0.36594937829757
C            7.05027943812408       -1.37067507344594        0.12514961486503
C            7.92354703712418       -2.38748619398223       -0.22240892629851
C            7.43771816704406       -3.65080849540848       -0.52075237469173
C            6.07227191778207       -3.88276725143886       -0.49408237738846
C            5.19480577891580       -2.87312281026258       -0.14499083787613
C            5.66635134080273       -1.60557925147409        0.20083360451926
N            4.81073957889062       -0.57490102990833        0.57136661018936
C            3.43251150004066       -0.80775170231677        0.72671540937070
C            2.98167897066603       -1.76798094236419        1.65864099485029
C            1.64950837412873       -1.99137876600542        1.86244579088690
C            0.69742007127976       -1.25304193533421        1.11413606904781
C            1.17194061803229       -0.29309666810746        0.15854449040776
C            2.49749856481846       -0.06443771934228       -0.03228601231219
C            0.00142811063909        0.37798495681276       -0.52343166825044
C            0.00954031882990        1.87963106918001       -0.36454946836703
C            0.01758174267795        2.61518794118234        0.80054058544672
C            0.02768397268799        4.00137111545619        0.71094379606548
C            0.02962019901779        4.63170304479332       -0.52514711232722
C            0.02163025049776        3.89629792090571       -1.69964435081045
C            0.01169610814233        2.51226437511313       -1.61750663817778
C            0.00363988207873        1.48763084420120       -2.64858253110789
C            0.00086830977608        1.58209091370581       -4.03185830980158
C           -0.00702783417277        0.41420440757597       -4.77752556377202
C           -0.01208124716885       -0.82699761510273       -4.15743242840040
C           -0.00960571621053       -0.92911358707401       -2.77194725606138
C           -0.00162212194687        0.22913414392073       -2.02588992390574
C           -1.17253087006994       -0.28576171134208        0.15977752045602
C           -2.49703883558496       -0.05168034143840       -0.03216048907237
C           -3.43569451788484       -0.79217754232290        0.72504848018621
N           -4.81322245128094       -0.55703819422580        0.56633512236033
C           -5.35311577408751        0.70182233132167        0.81037208324800
C           -4.57240549322409        1.77962940642376        1.22960323278188
C           -5.14141500899520        3.01880081870856        1.46074103458582
C           -6.50318613176855        3.20910051445667        1.29765077845417
C           -7.30305792177621        2.14149271633623        0.92282965890155
C           -6.73942348789008        0.89836165190986        0.68649203640828
O           -7.59588058202453       -0.11858492270228        0.36004740360442
C           -7.05257186872216       -1.35130879756959        0.11613527541291
C           -7.92568558712716       -2.36701238081843       -0.23498434782739
C           -7.43983109911521       -3.62967651121180       -0.53605950654079
C           -6.07446638132688       -3.86202990620934       -0.50841508159750
C           -5.19716515821576       -2.85347192871917       -0.15584923740004
C           -5.66875723010211       -1.58663148159350        0.19251917021943
C           -2.98959527799469       -1.75455953216330        1.65702955948873
C           -1.65856049621735       -1.98336332604186        1.86209135167321
C           -0.70285477429316       -1.24898565105682        1.11455039816078
H            6.94563108474859        4.15873443864594        1.47359361550526
H            4.50918076554617        3.81959563663707        1.77585930853203
H            3.51317481040155        1.62068082771902        1.38562957779623
H            8.36870922987427        2.22891934689464        0.81530112681893
H            8.97810566898094       -2.16471512298613       -0.26069418770216
H            8.12307523245530       -4.43959795105738       -0.78726034894804
H            5.68201831480817       -4.85494915761890       -0.75279943142717
H            4.13217935412199       -3.05502843964018       -0.14603277026290
H            3.71969156180721       -2.30305300839686        2.24051869742251
H            1.31710728376286       -2.70791407951865        2.59857466010645
H            2.84888661642017        0.64755707444072       -0.76603896212756
H            0.01636452542551        2.12231287858731        1.76284358308891
H            0.03419990698129        4.59494499857832        1.61389248551155
H            0.03762250025426        5.71150898342556       -0.57120606704208
H            0.02345537116316        4.39291280304768       -2.65908229874778
H            0.00467618560737        2.54597282566215       -4.51992649501489
H           -0.00925062198159        0.46928648594330       -5.85700202626620
H           -0.01813360253609       -1.72459250946842       -4.75906838334734
H           -0.01381469045654       -1.89580578552993       -2.28852754508385
H           -2.84493472974116        0.66193232670773       -0.76598123760951
H           -3.51527166819885        1.63746701386896        1.38249531076719
H           -4.51122116417315        3.83595863537090        1.77613553904074
H           -6.94780034452686        4.17532734211003        1.47571088148259
H           -8.37093947910541        2.24664819050499        0.81419932249245
H           -8.98016462270375       -2.14394229728003       -0.27370960680546
H           -8.12507267658462       -4.41761917257514       -0.80534840702280
H           -5.68415769730847       -4.83367287666842       -0.76905881036724
H           -4.13458692761085       -3.03567388191986       -0.15598926886943
H           -3.73040885578218       -2.28727367142634        2.23751831538027
H           -1.32972877937595       -2.70183432683392        2.59793480936547
