83
 energy: -134.258839207800 gnorm: 0.000064646546 xtb: 6.7.1 (edcfbbe)
C            7.34831630538074        3.16296304870254        2.00998141893055
C            5.98203469594379        3.26554950794074        2.21437337119658
C            5.13360224797437        2.24956221010888        1.81515606693237
C            5.63611000841193        1.09568411150316        1.21145258969044
C            7.01942298102942        1.02298031752413        0.97138607980876
C            7.86341378089301        2.04380436431469        1.37526624286855
O            7.59021105804635       -0.03351479583118        0.31414171427182
C            6.76329886561342       -1.03979984410849       -0.10715945579526
C            7.35473681988515       -2.10202662794131       -0.77090919462702
C            6.58594923319570       -3.17539481995451       -1.19162751113614
C            5.22775705053926       -3.19107416064228       -0.92155037397527
C            4.63118296377608       -2.13546864057591       -0.25664386452369
C            5.37936468809996       -1.02593092806802        0.13900635532143
N            4.81062298117419        0.05367294867051        0.80655188917480
C            3.43104114938002        0.08035754797322        1.08243655857821
C            2.98059457264343        0.14714254977507        2.41885594469144
C            1.64845254911247        0.13565552380462        2.72194725428508
C            0.69589220194270        0.07504098369950        1.67279355218185
C            1.16995796807875        0.01760713036452        0.31923474098417
C            2.49586796508109        0.01290483410300        0.02263822552915
C           -0.00111954841559       -0.04862595884234       -0.63453607037130
C           -0.03300698565977        1.06139644890944       -1.65708086422366
C           -0.09095541002281        2.42112285719196       -1.44217721805472
C           -0.13301270825702        3.26668070708661       -2.54351422279746
C           -0.11740613477702        2.75371128666761       -3.83264239523657
C           -0.05784175219379        1.38716582931837       -4.05414009265008
C           -0.01538092856328        0.53733888656275       -2.95943715647796
C            0.04157399097432       -0.91241123435039       -2.87094194481759
C            0.09690042103092       -1.88880912734678       -3.85381960779823
C            0.14638046223683       -3.21859717756744       -3.46750986266075
C            0.13971468026726       -3.57188066921666       -2.12569127580042
C            0.08576153803496       -2.59889092636566       -1.13566524808224
C            0.03827967662908       -1.27511161594859       -1.51482378423981
C           -1.17471474017891       -0.00733195319021        0.31693701909365
C           -2.50009604886392       -0.01627838869440        0.01697962210526
C           -3.43748262690800        0.02683764071070        1.07558245687482
N           -4.81710550179420        0.04394060202936        0.79710240176492
C           -5.37902646317383        1.07479650474321        0.05143264486371
C           -4.61909540708836        2.13242131030542       -0.44907767830329
C           -5.21063742503872        3.14297460790118       -1.18500421558661
C           -6.57445623123533        3.13300050790536       -1.42468734382854
C           -7.35325202201851        2.11174322334918       -0.90456796982440
C           -6.76701404255754        1.09399723090093       -0.17004058473748
O           -7.60291919051053        0.13978007545589        0.34485254905884
C           -7.03726717448652       -0.87360180308234        1.07110307486668
C           -7.88871087745664       -1.84621133307869        1.56732368804826
C           -7.37825329609694       -2.92304828494255        2.27506833367678
C           -6.01008545522020       -3.03194130576366        2.46368535194006
C           -5.15436307327038       -2.06260518982925        1.97455848608662
C           -5.65115463245511       -0.95039486155571        1.29298680084060
C           -2.99105823428732        0.07871787623537        2.41388504124560
C           -1.65963099569104        0.10815944641053        2.71875101045990
C           -0.70448628531403        0.06280246836327        1.67131204485567
H            8.01107551537967        3.95336303544388        2.32457241957836
H            5.56806088147689        4.14553116219089        2.68202087421078
H            4.06936803338637        2.34565184030157        1.95785141500748
H            8.91846239456363        1.94352245073554        1.17532719084118
H            8.41950550250634       -2.06932965291415       -0.93935352251466
H            7.05203764734600       -3.99745393218234       -1.71126206004503
H            4.62244201135797       -4.03227063779166       -1.22208663627030
H            3.57783902643741       -2.16873978953939       -0.03186411134421
H            3.71895329424761        0.17179368522964        3.20864544547904
H            1.31728204597819        0.15919765048471        3.74933069661873
H            2.84638261061327       -0.01356255788076       -0.99976058112013
H           -0.10487826054824        2.81988401975080       -0.43744386441497
H           -0.17856490416096        4.33594012812802       -2.39443927871104
H           -0.15253230975138        3.43037253680700       -4.67472136712202
H           -0.04717366504207        0.99354384334810       -5.06017960565750
H            0.10268107932614       -1.61993368172365       -4.90018264382587
H            0.19064025891316       -3.99228763523334       -4.22097239296497
H            0.17662766920883       -4.61550687668303       -1.84776437277692
H            0.08221915372603       -2.87263858619631       -0.08983829098311
H           -2.84859115075926       -0.08274448108862       -1.00428603312249
H           -3.56071080458994        2.16223884902335       -0.24874398055172
H           -4.59677693733305        3.94467305147245       -1.56552179598797
H           -7.03671601638570        3.92064263791245       -1.99827011915485
H           -8.42170708157009        2.08653803493760       -1.04933162277333
H           -8.94587458017962       -1.74421335524412        1.37969956750333
H           -8.04683667556290       -3.67607234769520        2.66085493431216
H           -5.60083297345982       -3.88066966883237        2.98957778277288
H           -4.08915340735410       -2.16262855864843        2.10780256970000
H           -3.73198778392413        0.13204337981277        3.19991521584229
H           -1.33090767521329        0.17760282350006        3.74482971575223
