83
 energy: -134.345181605916 gnorm: 0.000056062851 xtb: 6.7.1 (edcfbbe)
C            7.30974736590014        3.26010379480766        1.76604572559310
C            5.94931235256346        3.35316606838677        1.97895645024381
C            5.11440552830875        2.29354753185169        1.65705001114286
C            5.62883957319742        1.11634407316797        1.12703161439142
C            7.00765656595130        1.04488065532677        0.88600087810988
C            7.83615335722170        2.10316461892229        1.20828662853314
O            7.60024115123941       -0.05862592113869        0.31441538677517
C            6.78063087399334       -1.11267940172351       -0.02201784633422
C            7.38507084023116       -2.21348298797229       -0.59930235169739
C            6.63121756527628       -3.32709349855920       -0.94305347897561
C            5.27442923057501       -3.33208385151322       -0.69083390918470
C            4.66407383770070       -2.22968249651059       -0.11161927076171
C            5.39907853123092       -1.09618315806981        0.21423349089507
N            4.81662125708430        0.03055469032186        0.79755672691716
C            3.42993641275448        0.05725054008333        1.07706188327460
C            2.99188642438048        0.11011533487851        2.39893445539072
C            1.64121923046800        0.12918365015810        2.69912018920607
C            0.72527534185732        0.07962667540911        1.65964540765631
C            1.17057291558164        0.02101135883832        0.32966035238563
C            2.51262462271137        0.01830627136323        0.02666746485440
C            0.00055279721566       -0.04415750931492       -0.62149361153081
C           -0.03453833967965        1.08042538609718       -1.63089988942051
C           -0.08510599999702        2.43705421438978       -1.39619370596892
C           -0.12975437580571        3.29541691673389       -2.48726765799815
C           -0.12144671620846        2.79843551171759       -3.78210309218183
C           -0.06715356787997        1.43407082831591       -4.02123917679684
C           -0.02419383086748        0.57154367933405       -2.93780301872511
C            0.02837221811878       -0.88126932154463       -2.86699605135891
C            0.07107232038798       -1.84473754546342       -3.86170359606109
C            0.12087303736083       -3.17968225152524       -3.49149739937134
C            0.12523597712135       -3.54907893689468       -2.15463905515497
C            0.08133122533243       -2.58891709656400       -1.15187661497539
C            0.03570609882094       -1.26118693048463       -1.51685765501373
C           -1.17045651807913       -0.01137705884482        0.32990055582204
C           -2.51214386051937       -0.03589011260284        0.02594336248758
C           -3.43069438463867        0.04250078249320        1.07288907035871
N           -4.81710730639452        0.04862354493347        0.79112802583648
C           -5.39407686934219        1.11319296059299        0.09586346000015
C           -4.65016881949031        2.19334272613617       -0.36381064709155
C           -5.25631785036507        3.23569675485381       -1.04904755447494
C           -6.61725587821127        3.22366173253617       -1.27750956617779
C           -7.37926797213876        2.16506150260128       -0.80285168545418
C           -6.77905861528443        1.12366168734565       -0.12041483358706
O           -7.60655672520283        0.12422295982614        0.34039015953389
C           -7.01813875330383       -0.92305240678652        1.01301409949748
C           -7.85336102233962       -1.93297067801717        1.45207469823176
C           -7.33147391343307       -3.03416448954882        2.11667119065180
C           -5.96930354423668       -3.12134740426764        2.32102308012854
C           -5.12770256630526       -2.10991652091929        1.88257572530389
C           -5.63686651809636       -0.98688685608164        1.24150595460115
C           -2.99446478455784        0.12882342298851        2.39375294796426
C           -1.64440591696576        0.13577248714017        2.69665589141596
C           -0.72702860449918        0.07044879718509        1.65924152723060
H            7.96523942668204        4.07860755828890        2.01895771313874
H            5.52244100784225        4.25271530229560        2.39559462093718
H            4.05118726231637        2.38330416802470        1.81476651362087
H            8.89239065834425        2.00311304032852        1.01242758712489
H            8.45044272175470       -2.18172883587522       -0.76664614949956
H            7.11192177302474       -4.18018023372036       -1.39558654957003
H            4.67523165279930       -4.19489509574389       -0.93881145342171
H            3.60560101385342       -2.25327750364331        0.09218693759228
H            3.72483589140277        0.13360437531565        3.19210305991694
H            1.31249155040558        0.16951568418038        3.72623255651017
H            2.85808609703212       -0.01682345092647       -0.99602652088178
H           -0.09216247575748        2.82487917602650       -0.38746794340907
H           -0.17172597970530        4.36250658224418       -2.32462213128925
H           -0.15800532934699        3.48530646122240       -4.61532288539455
H           -0.06088530520028        1.05311653928329       -5.03167442040091
H            0.06710277501633       -1.56324374367587       -4.90427061819512
H            0.15671153272697       -3.94388258746754       -4.25449235079000
H            0.16299606469808       -4.59565501107345       -1.88959071131894
H            0.08481088928295       -2.87717106435464       -0.11030654938366
H           -2.85615028779516       -0.10902781742518       -0.99520539269585
H           -3.58814832791322        2.22397739863569       -0.18030513873635
H           -4.64992912192116        4.05718032810703       -1.39890367698086
H           -7.09485126397313        4.03016479617345       -1.81145498693670
H           -8.44774288534589        2.13108043741364       -0.94855536744604
H           -8.91115938830247       -1.84037451181800        1.26112753845551
H           -7.99192555222081       -3.81545847478438        2.45870708885838
H           -5.54631515579674       -3.97934748835458        2.82095017153950
H           -4.06343020765829       -2.19546044884447        2.03578741272634
H           -3.72883300167882        0.19379227797459        3.18334186905262
H           -1.31706548595842        0.20397347559657        3.72273454458920
