  83
       -134.20804689
 C          6.4450558979        3.2265900385        1.1347406052
 C          5.0871865731        3.0248688695        1.3148397783
 C          4.5325445590        1.7707841646        1.1369055592
 C          5.3247364766        0.6879745568        0.7529251643
 C          6.7085334555        0.8964515900        0.6157943569
 C          7.2564899608        2.1551793058        0.7987902862
 O          7.5762895668       -0.1204402548        0.3296360063
 C          7.0495151421       -1.3666969864        0.1345688931
 C          7.9341572273       -2.3851537032       -0.1757245675
 C          7.4633616553       -3.6632179617       -0.4316584669
 C          6.1002445662       -3.9083865342       -0.4049957570
 C          5.2108741506       -2.8977546746       -0.0925311749
 C          5.6679670054       -1.6155666716        0.2165560925
 N          4.8006268088       -0.5849395212        0.5547154305
 C          3.4268027654       -0.8274654354        0.7134761748
 C          2.9819521195       -1.7856935857        1.6503120578
 C          1.6511193933       -2.0156229050        1.8569144778
 C          0.6947409029       -1.2832195845        1.1101013905
 C          1.1642092901       -0.3234253751        0.1537452247
 C          2.4870562668       -0.0914077829       -0.0458636000
 C         -0.0074488908        0.3569912600       -0.5135749621
 C          0.0053247203        1.8519698903       -0.3036197932
 C          0.0067592696        2.5453878775        0.8865304582
 C          0.0298009808        3.9332818111        0.8442719620
 C          0.0521471757        4.6051112720       -0.3693195011
 C          0.0500133305        3.9108819218       -1.5684695845
 C          0.0258409843        2.5256325740       -1.5338289014
 C          0.0179739781        1.5360276310       -2.5980800141
 C          0.0282858492        1.6762883211       -3.9767368825
 C          0.0158793485        0.5336724994       -4.7602303056
 C         -0.0068126473       -0.7269060145       -4.1816546730
 C         -0.0172221090       -0.8749237192       -2.8007311304
 C         -0.0047530523        0.2581207966       -2.0178916611
 C         -1.1774033231       -0.3205248446        0.1580408489
 C         -2.5009204867       -0.0874127610       -0.0360391813
 C         -3.4386819637       -0.8267654439        0.7228583518
 N         -4.8127805329       -0.5825107341        0.5666209048
 C         -5.3332756887        0.6904436511        0.7719010027
 C         -4.5399528103        1.7640266869        1.1788442754
 C         -5.0895960545        3.0192474203        1.3632694288
 C         -6.4435275645        3.2311406946        1.1658947946
 C         -7.2565106718        2.1684890947        0.8062755087
 C         -6.7136289176        0.9085650840        0.6176059763
 O         -7.5824416340       -0.1005377390        0.3076193225
 C         -7.0598572980       -1.3484649469        0.1115241127
 C         -7.9460890293       -2.3589619559       -0.2199672340
 C         -7.4796668591       -3.6382068775       -0.4774940714
 C         -6.1190917273       -3.8928915534       -0.4295621385
 C         -5.2280786277       -2.8900689021       -0.0963784843
 C         -5.6814116859       -1.6067218163        0.2123063376
 C         -2.9920533589       -1.7874884733        1.6557958911
 C         -1.6605121460       -2.0171210536        1.8590137027
 C         -0.7062023168       -1.2827429600        1.1115563471
 H          6.8775189588        4.2049659589        1.2710537199
 H          4.4487493161        3.8456539613        1.6026238432
 H          3.4783424905        1.6244240274        1.3041295533
 H          8.3222752314        2.2695783443        0.6816411809
 H          8.9860234912       -2.1528246701       -0.2197996090
 H          8.1579195272       -4.4532834272       -0.6682123834
 H          5.7218279780       -4.8924381029       -0.6344226498
 H          4.1504623326       -3.0899311862       -0.0955024129
 H          3.7233362224       -2.3124713327        2.2349285372
 H          1.3242035367       -2.7308938367        2.5961713363
 H          2.8307880266        0.6173508872       -0.7857644463
 H         -0.0085940508        2.0191155213        1.8303893220
 H          0.0317001311        4.4964647750        1.7663163117
 H          0.0715566992        5.6854550447       -0.3781035966
 H          0.0674193338        4.4404811172       -2.5096880866
 H          0.0458122806        2.6553645892       -4.4327004061
 H          0.0241683088        0.6243864856       -5.8369344401
 H         -0.0158273744       -1.6032474192       -4.8133151409
 H         -0.0344774697       -1.8560741529       -2.3488179077
 H         -2.8474769430        0.6254940144       -0.7706682923
 H         -3.4890445505        1.6084497692        1.3585405618
 H         -4.4507833360        3.8329010978        1.6701802407
 H         -6.8718222641        4.2108446669        1.3056440799
 H         -8.3194719639        2.2912929268        0.6735983196
 H         -8.9956072123       -2.1191414894       -0.2796346792
 H         -8.1755600210       -4.4218093596       -0.7312136063
 H         -5.7435529514       -4.8782435177       -0.6581625506
 H         -4.1690707376       -3.0896050349       -0.0837450044
 H         -3.7319960601       -2.3166219828        2.2401570704
 H         -1.3314504988       -2.7344465388        2.5953447751
