88
 energy: -130.475565440451 gnorm: 0.000039778468 xtb: 6.7.1 (edcfbbe)
C            1.58038700572727        0.65025005394306        2.28836392477488
C            1.59267124937326        0.60989410909128        0.75811460939334
C            1.49590283986961        2.02684093424530        0.18299104940646
C            0.48312068347317       -0.26522454914507        0.22074897464839
C           -0.87321439518183       -0.10312521978951        0.36531513173835
C           -1.73422743413822       -1.01526213450894       -0.25324095352818
C           -3.17708081719973       -0.87342105820241       -0.17684352540486
N           -4.01544879182124       -1.87709182500304       -0.11953316536260
C           -5.26740077632114       -1.35063067006244       -0.02490887297506
C           -6.43437740272303       -2.21861838894384        0.01806686052069
C           -7.68076843746384       -1.80537694117232       -0.44842192029423
C           -8.76345220478338       -2.66258535692609       -0.39263767943806
C           -8.61885893075252       -3.94169421102875        0.11917722095654
C           -7.37803413503090       -4.36640819245730        0.56597540595534
C           -6.29269721309815       -3.51391770725627        0.51407208715393
C           -5.18551318729691        0.03250771178977       -0.01796679000651
C           -6.21187720346721        1.06038301271288        0.08629177964538
C           -7.18380227060744        0.97228945652797        1.08276373197912
C           -8.15659085608854        1.94610742513099        1.19680495794180
C           -8.17264626092156        3.02212049032548        0.32349576624774
C           -7.21346092708813        3.11507196397730       -0.67070129279748
C           -6.23850102752101        2.14257475991924       -0.79171819505496
N           -3.84331714601391        0.32636191229794       -0.12763913082567
C           -3.28475509815546        1.61362846765504       -0.20530777403179
C           -2.44512671637081        1.93800167372395       -1.26649619862688
C           -1.88171775486172        3.19807026561434       -1.33377444962771
C           -2.16024020159830        4.14028701955015       -0.35673979712006
C           -3.00564816119390        3.81959052995570        0.69217929524925
C           -3.56797588334237        2.55879003708397        0.77444874363535
C           -1.20881539647014       -2.10326080382113       -0.95353251680147
C            0.15562103626217       -2.27555602802519       -1.08606429332892
C            1.00600846694556       -1.34233643900565       -0.51183225710386
C            2.45276042026965       -1.24275330611272       -0.50303299464481
C            3.42947999947385       -2.04216040321796       -1.07629587197772
C            4.75776420685956       -1.69616044590187       -0.91934253295551
C            5.12556470702044       -0.56584617173354       -0.18540110552790
N            6.47437572881591       -0.22638973917034       -0.04110641676901
C            6.85901765717881        1.11859131491183       -0.03807742273341
C            7.89473925673729        1.55694658638788        0.78715483462650
C            8.27188042984141        2.88568036289531        0.78535408762984
C            7.62142975167466        3.79963738053083       -0.02743599254182
C            6.58952125983458        3.37060852241307       -0.84619813786454
C            6.21109245269923        2.04248751234349       -0.85860911285988
C            7.44036156927821       -1.23020902082215        0.09420309647943
C            8.69175298529855       -1.09361539938321       -0.50617186558049
C            9.64262201341717       -2.08557816061842       -0.36618748689296
C            9.36216901927256       -3.22917260246216        0.36356392671407
C            8.11916318084353       -3.37165679791473        0.95833261701229
C            7.16452620698398       -2.38169490038116        0.83126793285445
C            4.13826646569690        0.23288343311017        0.40218772562384
C            2.81770800916865       -0.10491700315404        0.23416861744687
H            2.42561651007735        1.22619087624277        2.65801176260117
H            0.66200430095830        1.11043952161820        2.64560857781391
H            1.64331371785443       -0.35850942094891        2.69083037569525
H            0.57107895649220        2.50296402173292        0.50211211380513
H            2.33608889324999        2.62961198079992        0.52025050377679
H            1.50768135824291        1.99086409601808       -0.90442180460475
H           -1.26741362193042        0.70814292839697        0.95900061232364
H           -7.79853295701047       -0.81671628286503       -0.86682900443120
H           -9.72604106903696       -2.33204953137936       -0.75616711024698
H           -9.46898953628452       -4.60700630439307        0.16226956884846
H           -7.25853565263767       -5.36692726430939        0.95643682839054
H           -5.31867350250413       -3.83110120006727        0.85320496256375
H           -7.16617172575988        0.13367041400129        1.76348402408860
H           -8.90391991941947        1.86829953910567        1.97281305707795
H           -8.93258136414792        3.78379686201350        0.41595724630505
H           -7.22535246970421        3.94789452162254       -1.35868072020673
H           -5.50270912829478        2.21373535323899       -1.58010428460515
H           -2.23559700378738        1.19807231951457       -2.02464235301507
H           -1.22580496563621        3.44645439819233       -2.15450009392570
H           -1.71873420983852        5.12377155883991       -0.41360148058164
H           -3.22567359381262        4.55172819715475        1.45461858337452
H           -4.21998048580013        2.29947486328867        1.59528580804642
H           -1.89994634674405       -2.80466080848235       -1.39450978238709
H            0.55017275072894       -3.11775851550688       -1.63456171501920
H            3.16136196251742       -2.91675640169891       -1.64965485109541
H            5.53009408643131       -2.29963488949691       -1.37334791886610
H            8.39702344588172        0.84890487113709        1.43002434789301
H            9.07441882265863        3.21137384775599        1.43082302241790
H            7.91667172848269        4.83790756453767       -0.02321990191437
H            6.08025429664279        4.07453527251523       -1.48821875365860
H            5.41325389472312        1.70918422393312       -1.50613504929029
H            8.90936411585607       -0.20738307843536       -1.08432561288405
H           10.60701886329963       -1.96821695251233       -0.83834249009568
H           10.10672799352485       -4.00370377880698        0.46771691352323
H            7.89324422839388       -4.25754650093427        1.53355974101407
H            6.19908184139173       -2.49067235484179        1.30339984634519
H            4.42641507862487        1.10025392414461        0.97804420495114
