88
 energy: -130.395906265023 gnorm: 0.000066387464 xtb: 6.7.1 (edcfbbe)
C            1.63213197527233        1.13734069634722        2.03016318660532
C            1.65967076312671        0.82534947155067        0.53080629358919
C            1.61489704236344        2.12283711116669       -0.28339124513032
C            0.52590825250178       -0.09771034916158        0.14001350996996
C           -0.80531818310506        0.12997990069854        0.22276011213198
C           -1.72278613125315       -0.87668240934690       -0.21788472868281
C           -3.11648175582404       -0.73064654646501       -0.22062632215613
N           -3.95428769126887       -1.77634842753031       -0.30236035438342
C           -5.19491574230293       -1.31520883583107       -0.15332365250019
C           -6.33675247880038       -2.21319097765705       -0.22488205657276
C           -7.56435585134514       -1.81060942551654       -0.74964333413236
C           -8.61880445271362       -2.70157023712829       -0.81119788432019
C           -8.46504409173520       -4.00186333966194       -0.35798233411964
C           -7.24147152506260       -4.41542620713629        0.14461836646110
C           -6.18307279327159       -3.53080440336105        0.20688741005778
C           -5.17986437074534        0.08829231075383        0.01165208585442
C           -6.27466672355601        1.00832695357331        0.20333046432093
C           -7.30852657264770        0.67910093875399        1.09031310972605
C           -8.36454805876982        1.54322421770415        1.28741461424940
C           -8.41884557472953        2.75113270568546        0.60656474643372
C           -7.40685583871535        3.08318078591453       -0.28118275629497
C           -6.34375436422813        2.22702651620178       -0.48290560723418
N           -3.85317604263453        0.45146207666768       -0.06085099739526
C           -3.36889167404616        1.76360077640044       -0.05126510297971
C           -2.54026477406675        2.20591200905126       -1.08431340430651
C           -2.06672474417435        3.50261062084954       -1.07814018170584
C           -2.41862752241194        4.37200432344541       -0.05634084667582
C           -3.24861556706255        3.93585052305927        0.96489647849055
C           -3.72518647085646        2.63936114740316        0.97338041209717
C           -1.18823140268607       -2.13624330391349       -0.65088494583148
C            0.14744553206919       -2.35892956881906       -0.73975839586747
C            1.04972335011418       -1.33136850759319       -0.36699081950614
C            2.45399027150762       -1.27306466825834       -0.35235034247305
C            3.43425537369479       -2.20691339747227       -0.74420893510641
C            4.75879545153227       -1.88209759091919       -0.61996824788551
C            5.16186880403264       -0.63268070195444       -0.11010918867087
N            6.51407796757037       -0.32093608992096       -0.00238291487863
C            6.95006763006371        0.98751880753615       -0.22738894227923
C            7.99037287330271        1.52823244237568        0.53093617618319
C            8.41337008768939        2.82306379019780        0.30627747981039
C            7.80715081178462        3.60149683981594       -0.66730299994451
C            6.77196760551469        3.07055256749008       -1.42092557962748
C            6.34503860798781        1.77500970638153       -1.20932887176858
C            7.43884361743466       -1.31486040808198        0.33093042282044
C            8.70523654871823       -1.32996232452505       -0.25654272775121
C            9.61244889798141       -2.31627405296733        0.07534314984440
C            9.27489993257461       -3.30270045226796        0.98868505771094
C            8.01788416416330       -3.29351407892300        1.57276918787843
C            7.10459768285184       -2.30927979993451        1.25209803793097
C            4.18572718589314        0.30781619165863        0.28556686528432
C            2.86692289552433       -0.00864094159732        0.16543442516486
H            2.48959887517733        1.74694075604311        2.30667217534422
H            0.72304582151273        1.67768186023966        2.28424561069267
H            1.66009819970880        0.21459027110933        2.60581168453185
H            0.70117300982623        2.67194089059612       -0.06584964156735
H            2.46894312477248        2.75209995580790       -0.04209815170941
H            1.63807365363959        1.89747561124756       -1.34764480233101
H           -1.17680089183418        1.04324016020002        0.65853986130919
H           -7.68643548169252       -0.80565893042552       -1.12526037229057
H           -9.56611768363870       -2.38073670293862       -1.22007202081698
H           -9.29432841448538       -4.69262465307085       -0.40430006390459
H           -7.11491863558983       -5.43185660678389        0.48847514264408
H           -5.22250466956883       -3.83728855230901        0.59119432657351
H           -7.26112215926394       -0.25546179690705        1.62982834228664
H           -9.14986808083376        1.27849110175424        1.98039086261282
H           -9.24603048269259        3.42683155794490        0.76435870034205
H           -7.44941597520255        4.01627657186104       -0.82413697328269
H           -5.57571585064406        2.48540931816070       -1.19696537346512
H           -2.27298084515774        1.52337748035961       -1.87732220726002
H           -1.42451958633478        3.83959750078490       -1.87843447995936
H           -2.04729405518941        5.38560646372125       -0.05654811987373
H           -3.52225848860543        4.60880623615115        1.76389149447902
H           -4.36332754876297        2.29346966131490        1.77278136358635
H           -1.90407972111869       -2.89272113375446       -0.93054797703208
H            0.53046683224403       -3.30561562991449       -1.09101992322480
H            3.13981185648413       -3.16146795739158       -1.15248535356312
H            5.52041135965888       -2.58068522567130       -0.93593793095264
H            8.45462109255681        0.92801172960023        1.29971750666300
H            9.21683486157670        3.23096113119929        0.90162454084700
H            8.13928623674751        4.61416422483448       -0.83755623323427
H            6.29868922364716        3.66816091059714       -2.18597274390954
H            5.54767918528509        1.35725093903277       -1.80601951564403
H            8.96474726832772       -0.56946321752267       -0.97845616127907
H           10.58759460553206       -2.32015813091252       -0.38879580204595
H            9.98645245358523       -4.07317063250344        1.24327322011116
H            7.74956002651048       -4.05488965249435        2.29006644749435
H            6.12942356769246       -2.29444367327889        1.71604156222115
H            4.50265292561369        1.25662867376215        0.69406155155025
