88
 energy: -130.395905319069 gnorm: 0.000040570709 xtb: 6.7.1 (edcfbbe)
C            1.63833971048344        1.15169453107811        2.02417157775723
C            1.65616163626752        0.83881487645810        0.52491004532584
C            1.59327785853453        2.13542907271684       -0.28958019627782
C            0.52730394196599       -0.09391378186395        0.14269026532258
C           -0.80519044503001        0.12276741901845        0.23484986192923
C           -1.71752264518084       -0.88873690952574       -0.20559680297741
C           -3.11220706473449       -0.75394066173372       -0.20543224481616
N           -3.94026555691047       -1.80618785980670       -0.30490482425090
C           -5.18551350041451       -1.35923117164967       -0.15354667602001
C           -6.31867356447987       -2.26610229281090       -0.24799619957809
C           -7.54524841153932       -1.86567432959006       -0.77683633777257
C           -8.59065242560241       -2.76510505318990       -0.86391363085352
C           -8.42877538800887       -4.07172487489662       -0.43223643454096
C           -7.20616236453275       -4.48258598414406        0.07489519971860
C           -6.15669794663697       -3.58947816618551        0.16248982334793
C           -5.18428075207790        0.04171329021273        0.03357199528274
C           -6.28851349037657        0.94707624250315        0.23878761757180
C           -7.32350972385743        0.58868592308702        1.11330172297801
C           -8.38927623792409        1.43756277743816        1.32332052919669
C           -8.45261022506054        2.65918468131555        0.66814750707721
C           -7.43957396127101        3.02035164034886       -0.20698617289954
C           -6.36677660017779        2.17957847457706       -0.42151526171650
N           -3.86085312534689        0.41849427329383       -0.02975001055296
C           -3.39092310099488        1.73556179186056        0.00789941808615
C           -2.57182592909229        2.21119514513040       -1.01783698090430
C           -2.11330162964864        3.51290885648183       -0.98339096190536
C           -2.47093901461257        4.35414232373416        0.05976470853756
C           -3.29194392667737        3.88498886255852        1.07359706492795
C           -3.75366693132909        2.58325117207341        1.05357384055475
C           -1.17527088375101       -2.14266995132493       -0.64608214321183
C            0.16150867303386       -2.35556251572574       -0.74097412115673
C            1.05785259386903       -1.32226391068881       -0.37002455220296
C            2.46168425789490       -1.25245161084246       -0.36495648477343
C            3.44662510182732       -2.17822671586961       -0.76398608633816
C            4.76933621731378       -1.84170511978443       -0.65140572444022
C            5.16550075699548       -0.58785777007276       -0.14735784416752
N            6.51582995236787       -0.26244420198859       -0.05459943016283
C            6.93559480957122        1.04887697502477       -0.29329038595662
C            7.97775814921619        1.60652710360535        0.45002782647660
C            8.38392493657521        2.90428862645361        0.21153857573093
C            7.75889500493231        3.66887635152528       -0.76111208328976
C            6.72181302297718        3.12106177541989       -1.49989510766143
C            6.31158522851795        1.82248939756854       -1.27439953247591
C            7.45334273747685       -1.24507436374348        0.27585239461767
C            8.71571319497061       -1.24957150761741       -0.32045475509429
C            9.63566089399842       -2.22465386783603        0.00956579277125
C            9.31500661786814       -3.21051587305405        0.92957271680318
C            8.06190629985232       -3.21219429299944        1.52206383047589
C            7.13605097134673       -2.23910865741472        1.20346198885864
C            4.18470234274432        0.34404179464521        0.25687209717217
C            2.86769952794794        0.01548818979773        0.14951787751858
H            2.49345995572389        1.76789826310821        2.29323927028074
H            0.72735914383223        1.68556801730297        2.28511092300186
H            1.67778962916707        0.22972411215302        2.60037595100691
H            0.67803479339466        2.67803553674981       -0.06235371863095
H            2.44533486074657        2.77100346378885       -0.05800642479130
H            1.60654860791707        1.90946147003579       -1.35388651176658
H           -1.18080331472778        1.03186209520063        0.67554094261740
H           -7.67329673135135       -0.85540343694497       -1.13585898505822
H           -9.53708067365979       -2.44591369078358       -1.27611356444112
H           -9.25089202104161       -4.76935678506323       -0.49888217734795
H           -7.07326157872276       -5.50367908956427        0.40213397787104
H           -5.19691079412682       -3.89391128368154        0.55035757070147
H           -7.26920192406041       -0.35657020692576        1.63315927796139
H           -9.17524164505336        1.15005627016289        2.00642094149214
H           -9.28746208574371        3.32292130130568        0.83598521161552
H           -7.48901715440286        3.96438574138292       -0.73009770439859
H           -5.59816698232721        2.46109027773198       -1.12612920625766
H           -2.29964735315093        1.55014911911937       -1.82724316540941
H           -1.47840094208096        3.87588756860500       -1.77814729605444
H           -2.11107956401372        5.37163738439000        0.08183951713638
H           -3.57014440626083        4.53605245331504        1.88897980966874
H           -4.38520393825182        2.21156506092434        1.84663357219326
H           -1.88676075754310       -2.90318932927896       -0.92580663732594
H            0.54980038696604       -3.29839662951443       -1.09677178778471
H            3.15703126237499       -3.13581963664426       -1.16859501990047
H            5.53443393420513       -2.53397982809123       -0.97283998626844
H            8.45677174849974        1.01712049949884        1.21811548297367
H            9.18904259344574        3.32538510021946        0.79535614589778
H            8.07789710127055        4.68390445446736       -0.94209413063354
H            6.23387862484391        3.70776356554856       -2.26417696268632
H            5.51263599995599        1.39159669753945       -1.85951679273996
H            8.96222841019191       -0.48981446719186       -1.04767872046303
H           10.60761217837410       -2.22017205229387       -0.46123161168703
H           10.03654481433024       -3.97210110778186        1.18278813757147
H            7.80653540597785       -3.97326168375187        2.24440289138730
H            6.16399173552365       -2.23267317963762        1.67408098541229
H            4.49706921093926        1.29619720664793        0.66112673405041
