  70
       -111.57123479
 C          8.1210201415        3.4376331823        0.5462917835
 C          6.7678570005        3.6999167280        0.7495375278
 C          5.8026863886        2.7407767252        0.5100066391
 C          6.2217383363        1.5008548526        0.0490433459
 C          7.5946243911        1.2183623931       -0.1386030640
 C          8.5459874198        2.1989570623        0.1098620732
 C          7.6745881188       -0.1479797223       -0.5728134550
 C          8.7296430083       -0.9793318827       -0.9254400796
 C          8.4489346959       -2.2685869021       -1.3310916873
 C          7.1353514051       -2.7276953394       -1.4017635960
 C          6.0692463546       -1.9204628713       -1.0546900165
 C          6.3468256280       -0.6311049773       -0.6233446789
 N          5.4799354510        0.3749487457       -0.2461494442
 C          4.0845510252        0.2586358411       -0.1626149882
 C          3.2727224323        1.2026398362       -0.7956829380
 C          1.8932925469        1.1202548957       -0.7355256834
 C          1.3277133418        0.0661039141       -0.0425263536
 C          2.1481229996       -0.9125525109        0.6057739549
 C          3.5248604446       -0.8006406789        0.5454189752
 C          1.2658378296       -1.8773472049        1.2398511589
 C          1.2487680580       -3.0406638300        2.0032523201
 C          0.0095023726       -3.5820084158        2.3552442104
 C         -1.2328807047       -3.0478753464        2.0029475725
 C         -1.2570078489       -1.8848814253        1.2392276004
 C         -2.1448665900       -0.9256147141        0.6041773506
 C         -3.5224602479       -0.8194536072        0.5467740213
 C         -4.0877157504        0.2359458140       -0.1625950822
 N         -5.4828502501        0.3587305029       -0.2363832641
 C         -6.2075255693        1.5012813207        0.0387469992
 C         -5.7705271748        2.7400259032        0.4861260130
 C         -6.7207545294        3.7179899080        0.7084513026
 C         -8.0770551458        3.4755606206        0.5020672624
 C         -8.5203071357        2.2379226233        0.0811860703
 C         -7.5839796814        1.2387260075       -0.1496603101
 C         -7.6847635814       -0.1330679926       -0.5615800652
 C         -8.7535166393       -0.9509149757       -0.9040536736
 C         -8.4950620370       -2.2523005342       -1.2848132962
 C         -7.1896774837       -2.7359968123       -1.3407012913
 C         -6.1100740138       -1.9416425753       -1.0052621618
 C         -6.3650585771       -0.6393846470       -0.5994062124
 C         -3.2801139297        1.1779982032       -0.8045569308
 C         -1.9004802952        1.1030427474       -0.7451669322
 C         -1.3295614411        0.0562950709       -0.0455789980
 N          0.0000134620       -0.2652058118        0.1725968445
 C          0.0031049863       -1.3996720659        0.9220872759
 H          8.8443350577        4.2150417997        0.7428345202
 H          6.4668462624        4.6741282638        1.1060012489
 H          4.7580673398        2.9480620048        0.6878317488
 H          9.5955879029        1.9902691907       -0.0329841635
 H          9.7464050671       -0.6184047557       -0.8863645312
 H          9.2549006044       -2.9318135061       -1.6080927474
 H          6.9457251711       -3.7362751523       -1.7387267978
 H          5.0536470002       -2.2797812629       -1.1283366288
 H          3.7383743106        2.0020064561       -1.3516946830
 H          1.2786131377        1.8575959392       -1.2278520199
 H          4.1593007207       -1.5152892234        1.0469161862
 H          2.1569090951       -3.5269284852        2.3256032174
 H          0.0120871791       -4.4851615169        2.9490185040
 H         -2.1379717079       -3.5400239447        2.3249349441
 H         -4.1522683911       -1.5340243103        1.0541010607
 H         -4.7237733062        2.9330416305        0.6671302321
 H         -6.4048514668        4.6916000254        1.0534477259
 H         -8.7882717598        4.2673510886        0.6846956827
 H         -9.5725738454        2.0442055061       -0.0627496890
 H         -9.7634391610       -0.5703508956       -0.8755121937
 H         -9.3118718958       -2.9058207795       -1.5530177711
 H         -7.0172180285       -3.7543484625       -1.6568812272
 H         -5.1013885511       -2.3214977147       -1.0694625494
 H         -3.7497284711        1.9710825001       -1.3661385423
 H         -1.2899096396        1.8404232315       -1.2424753328
