112
 energy: -152.156224411314 gnorm: 0.000051305894 xtb: 6.7.1 (edcfbbe)
C           -5.98947267082393       -5.10582627181293       -2.64760037316325
C           -6.34777695153533       -4.75100817104773       -1.19659141561967
C           -5.59267411808669       -5.67929421576637       -0.23327133272373
C           -7.84883131818304       -4.99014906703069       -1.00606823468788
C           -5.94542153296528       -3.30911905621418       -0.91744420661585
C           -4.59860276043223       -2.94433319887657       -1.04603547805343
C           -4.13960771391868       -1.66528367224587       -0.80186038276602
C           -5.05880765137411       -0.70785385618003       -0.40179506510362
C           -6.42463057818479       -1.04053550701690       -0.29507573469151
C           -6.85936443774954       -2.33515834292939       -0.54814855524161
C           -7.11272443949107        0.16791430033418        0.07239163919198
C           -8.44500651669795        0.44920427994236        0.34592802605839
C           -8.81721962202024        1.73312218492311        0.71092031729667
C          -10.25925175109708        2.11614956815030        1.01481714520163
C          -11.22354091241830        0.93385280357862        0.87689560124565
C          -10.70454552858060        3.21116275411560        0.03391927725301
C          -10.35274326432908        2.64022983062273        2.45576274849976
C           -7.82005336165734        2.71249333214585        0.81164216813823
C           -6.48836427040850        2.45977413781591        0.54857808160787
C           -6.13318845073765        1.17871034450973        0.15576919369670
N           -4.88879430133543        0.64033796157629       -0.13026386151174
C           -3.67720203695268        1.32733415042537       -0.13278665938953
C           -2.56212867544579        0.78736635055542        0.51135983333479
C           -1.35692026680856        1.45640171676118        0.50030149071233
C           -1.23819907003655        2.69013034605103       -0.14223958801314
C            0.02564896800497        3.45761489768935       -0.13372472981047
O            0.02963980658720        4.68236268384583       -0.15221814748763
C            1.28521003294183        2.68284301814297       -0.09181803701444
C            2.38696255983808        3.21407444074929        0.58000936831640
C            3.57558406583698        2.52021756501532        0.64545304529944
C            3.70300057687650        1.28700202837927        0.00290551862083
N            4.89988686136059        0.57748929591592        0.06684408598293
C            5.02818593254257       -0.77528418746015        0.33996501990694
C            4.06720367144369       -1.72297658079420        0.65659704649444
C            4.48735258713396       -3.01134699349548        0.92109317317000
C            5.83450550946228       -3.39561764433679        0.89270640609845
C            6.19316330013074       -4.84641264263874        1.18506870644126
C            5.71760708677504       -5.21026454356223        2.59971983632506
C            5.50207849886713       -5.75374402956862        0.15597463937194
C            7.70092548059197       -5.10631990183918        1.10903637398545
C            6.78840738760702       -2.43129173632844        0.60946349629500
C            6.39332341611827       -1.12753266937339        0.33893744805064
C            7.12622656302274        0.07400443159534        0.04271519063310
C            8.48099099033644        0.33956199038956       -0.10909869727781
C            8.90019542290081        1.62125353606248       -0.42770802943256
C           10.36801651842558        1.98807706165577       -0.59841017270043
C           10.60111650408123        2.47690364190200       -2.03579417434042
C           11.30475342703282        0.80360707835391       -0.34057037711630
C           10.72800562856322        3.10275655755741        0.39536395799612
C            7.92790403249634        2.61326986938684       -0.61259361614817
C            6.57526960327174        2.37703208171552       -0.46757344568553
C            6.17089982878166        1.09924642009287       -0.11308160698158
C            2.61589618874596        0.77193578205616       -0.70615280194864
C            1.41942877204331        1.45602086694819       -0.74377844927837
C           -2.36341974552554        3.24020799532394       -0.75878350523981
C           -3.56409776131675        2.56462264430307       -0.77034523561324
H           -4.91982818503292       -5.03078390706146       -2.82335153538698
H           -6.29950002868326       -6.12473259444419       -2.87100243872630
H           -6.49640364864607       -4.43202605770880       -3.33577804330783
H           -4.51723393102639       -5.60228309153867       -0.36771638461349
H           -5.88360810194604       -6.71369252997346       -0.40507750005316
H           -5.82662657904248       -5.42174966997937        0.79807350678275
H           -8.43277245316137       -4.38138978472420       -1.69279444352387
H           -8.15366287881037       -4.77068569069077        0.01480149325304
H           -8.07747103303305       -6.03507686519439       -1.20716643126290
H           -3.87705937217566       -3.68587758497627       -1.35347902338825
H           -3.09555501690013       -1.42513937680702       -0.93494620721616
H           -7.91009388663067       -2.55311808808098       -0.45577787739872
H           -9.16555925726587       -0.34801280675284        0.27255286296712
H          -11.21709447563949        0.53948539249441       -0.13679289633102
H          -10.96828697493590        0.13760431321322        1.57260813851738
H          -12.23585732876383        1.26434383308904        1.10163868440400
H          -10.62909345264241        2.85168622850831       -0.99069666948228
H          -10.08966486516178        4.10219411306691        0.12780268095947
H          -11.73875878924389        3.48920020322570        0.22692923282960
H          -11.38524517401726        2.88281725412278        2.69923914471114
H           -9.75332281513276        3.53591797052856        2.59349113128496
H          -10.00149082408880        1.88380773466652        3.15521400059445
H           -8.08989026569530        3.71351811547622        1.11209379746204
H           -5.75188193554072        3.24088707841222        0.66340418472335
H           -2.65714850286651       -0.14909624462722        1.03954284001048
H           -0.51024270583198        1.04017386776412        1.02512739908796
H            2.28058329556178        4.16981595299574        1.07238044216100
H            4.40662004000637        2.91686829800109        1.20821391175449
H            3.01937840410116       -1.46924136847860        0.71140936425843
H            3.73322834052096       -3.74481894562558        1.16271862649942
H            5.99987408698977       -6.23390579334463        2.83776709599436
H            6.17372628056636       -4.54706558339815        3.33239419782504
H            4.63805851210594       -5.12654685575770        2.69016065924360
H            4.42087966830583       -5.65703632310183        0.20306198959616
H            5.82398498198112       -5.49445164636386       -0.85090111689144
H            5.75882830457280       -6.79460811101424        0.34272302349022
H            8.23826199058834       -4.51416890791092        1.84643789126786
H            8.08763180627454       -4.88014919432722        0.11778576272978
H            7.89805643531614       -6.15678480757622        1.31456695971886
H            7.83997073560075       -2.66395188139131        0.59749325486718
H            9.18229858671225       -0.46751772857675        0.02107924171596
H           11.65024527340653        2.72655522294174       -2.18113862794726
H           10.00765147698091        3.36004985889952       -2.25645522338235
H           10.32936430973597        1.69814560995222       -2.74599525170458
H           12.33730916653199        1.12570184159703       -0.46153624945225
H           11.18718552675293        0.42586705183855        0.67268739668784
H           11.12089023270084       -0.00284733189397       -1.04691285430083
H           10.54090256492528        2.77196947587985        1.41535374205147
H           10.14280647120697        4.00049763056203        0.21604554432795
H           11.78128869201796        3.36035276466405        0.30369155444169
H            8.23538256422791        3.61145297453829       -0.88501093722669
H            5.86184064491224        3.16853618463072       -0.64157043300451
H            2.72541225899277       -0.15833793456806       -1.24234772721613
H            0.59235940764959        1.05673217229273       -1.31156886950126
H           -2.26724632030679        4.19936541931605       -1.24666707378515
H           -4.41700435991375        2.97943066439725       -1.28535818027288
