112
 energy: -152.075688271033 gnorm: 0.000069501421 xtb: 6.7.1 (edcfbbe)
C           -6.32897016260455       -4.72483821699199       -3.46884460691823
C           -6.65764506193818       -4.58923004730879       -1.97391630164471
C           -5.91664996599074       -5.67494568219958       -1.17827861643642
C           -8.16253683275733       -4.81192012813476       -1.79508712300258
C           -6.20561322180560       -3.22114894424126       -1.48760441186513
C           -4.84959149229702       -2.87887468305585       -1.58910966371915
C           -4.34970122306430       -1.66301742590177       -1.16912413482459
C           -5.23678216869143       -0.74996932525404       -0.61361677681074
C           -6.61340708763860       -1.05935099935646       -0.52471886763795
C           -7.08847740321126       -2.28751145149222       -0.95481272888898
C           -7.25243960276302        0.10188286689134        0.04088476262076
C           -8.56542764519482        0.39410996706768        0.37103872037822
C           -8.87690398635326        1.62534480803505        0.93876509001637
C          -10.29717612827798        2.01399610714478        1.31857280389196
C          -11.31834640299049        0.92284516941469        0.98207987314801
C          -10.69044680850118        3.28741782930133        0.55374871016973
C          -10.35918872703450        2.27675682717254        2.83125373585100
C           -7.83659833319724        2.53465412898448        1.17893327799932
C           -6.52037382682822        2.27018773863467        0.85911410482378
C           -6.22682661987459        1.04974946967772        0.26381882499319
N           -5.01785398843318        0.52477980603036       -0.13701260725204
C           -3.78024811519309        1.17393595626741       -0.08084400643261
C           -2.67084085798051        0.52950793379059        0.48117247939116
C           -1.44830365702036        1.15238887840934        0.52254344062590
C           -1.27284394218361        2.44401166950854       -0.01349952163066
C           -0.01359044765582        3.16273803849441        0.03142159931873
O           -0.01635752971560        4.43752221459946        0.03276568215627
C            1.24743183865047        2.44823892800474        0.07062039211885
C            2.39334182565079        3.11652008752367        0.55441375844710
C            3.61792892082184        2.50243447923987        0.58751763204375
C            3.76435545305036        1.19425763422820        0.10714461715390
N            5.00908103960700        0.55713229782776        0.14052174249273
C            5.25216062105187       -0.71285820225075        0.61793554032070
C            4.38780533135509       -1.63253484286391        1.19784658187820
C            4.91026213365349       -2.84066470220646        1.61274756609754
C            6.26740429577776       -3.16879530878033        1.48282949004260
C            6.74567241398377       -4.52882300680598        1.96667993685560
C            6.45141710820648       -4.65961595492872        3.46915851294290
C            5.99985498668229       -5.62746507601550        1.19357485689807
C            8.24877752788235       -4.73551394279588        1.75616323106355
C            7.12765492584060       -2.22888765974349        0.92469558108162
C            6.62967010524251       -1.00832347712357        0.49908692837290
C            7.24318757862494        0.15609725882024       -0.08766452366628
C            8.54487775919293        0.45950067200089       -0.45079340094690
C            8.83025540586999        1.69038698596560       -1.03283018453415
C           10.23685747733263        2.09017233229397       -1.45014280265490
C           10.25737114849550        2.35366785871440       -2.96382395125096
C           11.27511622106332        1.00686892541390       -1.14167531616623
C           10.64000584563438        3.36661034470613       -0.69562928795110
C            7.77560518204884        2.58857285984438       -1.25136351366113
C            6.47016818124441        2.31278848306737       -0.89864362975548
C            6.20294155263333        1.09228229430965       -0.29116286478445
C            2.64959500697217        0.53778604915104       -0.42995542867481
C            1.42272432413242        1.15270238900060       -0.45675350366683
C           -2.41516457733872        3.10280215542548       -0.51722290037673
C           -3.63516301465799        2.48028554455283       -0.56614944414024
H           -5.26008972789847       -4.65471102721669       -3.64992645835006
H           -6.67424757567737       -5.68739300516984       -3.84017143067113
H           -6.82318284943926       -3.93830509285375       -4.03590429954085
H           -4.84120560081093       -5.60590359712630       -1.31561657428979
H           -6.23854361292768       -6.66130292179285       -1.50550781099054
H           -6.13225686242905       -5.57612602742875       -0.11614415887396
H           -8.73680352932566       -4.08868962416065       -2.36961541244717
H           -8.44686478545651       -4.74594142045611       -0.74736093274822
H           -8.42500340898026       -5.80608988400990       -2.15122650820599
H           -4.15648761756583       -3.58583021556911       -2.01781600027039
H           -3.30222635655773       -1.42805111987993       -1.28024985722720
H           -8.14186671945865       -2.49448213997923       -0.87189829170289
H           -9.32489619092583       -0.34595496997637        0.18437729156642
H          -11.32830498832055        0.71111294769275       -0.08470133822670
H          -11.10768607822989        0.00650526595914        1.52864646243208
H          -12.31313863536086        1.26027525615689        1.26593647204681
H          -10.62872438975158        3.11648723666109       -0.51931075218132
H          -10.03896966615547        4.11999418069956        0.80391346802605
H          -11.71194201154397        3.56938340916235        0.80007430875007
H          -10.06279711535294        1.38566275054161        3.38134911843313
H          -11.37388574094460        2.54041863526914        3.12200818030427
H           -9.70051619427710        3.09055344780064        3.12146015601036
H           -8.05996847171288        3.48469977608439        1.63890282215546
H           -5.74390578612427        2.98765847747934        1.07710268831486
H           -2.79589784831821       -0.45007648299405        0.91977598048709
H           -0.61972379244829        0.66249650288011        1.01146716004903
H            2.26671091388928        4.12373583755589        0.92488602257941
H            4.47106455810361        3.01037199241507        1.01328463867612
H            3.34050840893654       -1.40841695238296        1.33092012457100
H            4.23470004073592       -3.55294652093583        2.06027091884391
H            6.81194296716978       -5.61785200456449        3.83713324993529
H            6.95228492396074       -3.86683980740161        4.02151104399917
H            5.38636211371230       -4.59632421291144        3.67369064729409
H            4.92731033168680       -5.57201384486632        1.35723024414069
H            6.18788049172298       -5.53026950801132        0.12604962310609
H            6.34277509012766       -6.60812228444053        1.51654655305188
H            8.82723404808164       -4.00146418247282        2.31250344774577
H            8.50907180224488       -4.67418440957331        0.70193000384060
H            8.53068476120385       -5.72388053676870        2.11362741150855
H            8.18102539991072       -2.42507216325105        0.81865633820718
H            9.31595664742808       -0.27201500840155       -0.27866446454267
H           11.26286141910617        2.62202763089155       -3.28106204386296
H            9.58770486237487        3.16454172943823       -3.23646831183187
H            9.95061667233333        1.46131255364667       -3.50606941584652
H           12.25893031766544        1.35145340451246       -1.45380398987979
H           11.31694206804953        0.79602931719053       -0.07552272093535
H           11.05574995235206        0.08858238384339       -1.68157820170650
H           10.61011380098666        3.19454072339133        0.37858742109789
H            9.97398894543839        4.19323364692500       -0.92669088363211
H           11.65152777000043        3.65806015793568       -0.97044466940918
H            7.97845819148273        3.53866610020963       -1.72064807461453
H            5.68183497605004        3.02189342079197       -1.10081776957795
H            2.77365689752491       -0.44448303292972       -0.86279209028622
H            0.59000383825801        0.65361163335222       -0.92897421135420
H           -2.28940351260783        4.10857522999328       -0.89186565415314
H           -4.48462758743421        2.97988087794478       -1.00875664617182
