112
 energy: -152.154986976651 gnorm: 0.000067750183 xtb: 6.7.1 (edcfbbe)
C           -9.27974545599989       -3.55112329906082       -2.66002248681097
C           -8.70683847340614       -3.51820700341369       -1.23515425696067
C           -8.02635016669237       -4.85810745362701       -0.91719894335825
C           -9.87229375155592       -3.33589261140435       -0.25768855829389
C           -7.67965072966430       -2.39841049326000       -1.13643922208419
C           -6.54544395740074       -2.44435149635893       -1.95824465015890
C           -5.55944734092682       -1.47802738774292       -1.93344510051907
C           -5.70428378159152       -0.42207233443016       -1.04720663031322
C           -6.85075262108338       -0.33537568714803       -0.23073302070476
C           -7.82620862695735       -1.32284393382652       -0.27500345224593
C           -6.72957918407945        0.88760832556355        0.51688347697188
C           -7.51861092233594        1.49095673838580        1.48346672928679
C           -7.11709518782211        2.68737688207027        2.06434474225633
C           -8.00402120594626        3.33307541920389        3.12112810718744
C           -8.18408793258724        2.35549771273318        4.29243113303098
C           -9.37062485782845        3.65402088807203        2.49731269310712
C           -7.41844177992036        4.63477875262726        3.67726239499409
C           -5.90259085784978        3.24820201733674        1.65956545801452
C           -5.09630988920156        2.66870370332162        0.69600892275565
C           -5.52076355667117        1.48993747119304        0.10696550670783
N           -4.90355661263962        0.68795053900666       -0.83872720870236
C           -3.68673711468311        0.96048367275742       -1.46416342092895
C           -2.69299784950664       -0.01622554521256       -1.53794836274958
C           -1.47660000870375        0.27079116162677       -2.12315826840264
C           -1.23118981298525        1.53554895562314       -2.65722314883966
C            0.05803481463464        1.88484701126664       -3.29911808211833
O            0.09521997224463        2.58120704902944       -4.30594532958865
C            1.29455623606934        1.38996770369864       -2.65977886862380
C            1.35773447903272        1.07303744410016       -1.30102642606257
C            2.54827505102850        0.67555072642889       -0.73110317386692
C            3.70772910332400        0.58466238044503       -1.50382626137432
N            4.91102205192658        0.19494302624773       -0.92128389083571
C            5.09590169104449       -0.88642185427153       -0.07494169534993
C            4.20982648792814       -1.87071478820230        0.32807744479501
C            4.67702940192991       -2.87407377930464        1.15890131020318
C            6.00329718115569       -2.93645461698068        1.59501608765137
C            6.51225347423341       -4.03879992110785        2.51489690146133
C            5.42518748491439       -5.04913008305213        2.89439122466629
C            7.64324615875135       -4.80109943125466        1.80792849517683
C            7.04423904783875       -3.40346538855368        3.80849362772807
C            6.88823415767465       -1.95723922930492        1.16077051107080
C            6.44733591295410       -0.94119629496657        0.32813052814473
C            7.10699322311736        0.17398581125253       -0.29760208847254
C            8.41080506191665        0.64926295610151       -0.24747063805780
C            8.75357432886971        1.79646551456683       -0.94551054150745
C           10.16217899316658        2.37457557962619       -0.93638340368580
C           10.69800819432159        2.41952609941371       -2.37521445614502
C           11.13424114295059        1.54287856872212       -0.09368417784068
C           10.12104120158251        3.79465434824764       -0.35193697288479
C            7.75564185929803        2.45467465874988       -1.67644081511379
C            6.45215284378515        2.00410023599780       -1.74391575394872
C            6.12860237390702        0.84150818161976       -1.06215046898551
C            3.65046015677157        0.90454538263550       -2.86221099235833
C            2.46076163973279        1.30937975335863       -3.42506240429380
C           -2.24321675198452        2.49448541823026       -2.62072124333833
C           -3.45289553636150        2.21863550028347       -2.02064662764570
H           -8.50358353684618       -3.74464602051136       -3.39544600243229
H          -10.03127583201194       -4.33364191998593       -2.74405359395403
H           -9.74579813339245       -2.59725262087852       -2.90030660960260
H           -7.23045696947905       -5.07795577173285       -1.62338386077240
H           -8.75285576129505       -5.66702200216339       -0.96211936756783
H           -7.59768323638637       -4.83391226863135        0.08299476266946
H          -10.41731949878586       -2.41751397013814       -0.46426474615280
H           -9.52044609570454       -3.31953103812898        0.77153459593802
H          -10.56634159475961       -4.16770755348706       -0.36244814378302
H           -6.42639389670449       -3.26418940600768       -2.65028245608192
H           -4.71167147914479       -1.54353663291154       -2.59899168881096
H           -8.68759690076641       -1.22526579423273        0.36435277248118
H           -8.43987024920934        1.01235394405030        1.77766425521125
H           -8.66980600008896        1.43769220345792        3.97290771623276
H           -7.21644167881199        2.09820996570536        4.71925231253613
H           -8.79467349378996        2.81030684894048        5.06990812788844
H           -9.86123133809992        2.75505174303290        2.13430167138871
H           -9.25005676022235        4.33806404741934        1.65928116989698
H          -10.01931231967632        4.12270357716544        3.23470201682601
H           -8.09669023411004        5.04652562666672        4.42233643933910
H           -7.29408297413630        5.37676895864872        2.89164333941328
H           -6.45894310424757        4.45904283008076        4.15876458036704
H           -5.55865391112483        4.16651412308543        2.10597845276343
H           -4.15668685204997        3.12745855440211        0.42646443913493
H           -2.87373708797101       -0.99142936086190       -1.11186366004610
H           -0.71538564981666       -0.49303998706242       -2.18052760846220
H            0.47950630370601        1.17506591573813       -0.68184022719646
H            2.59870058858071        0.46081677599714        0.32560742284420
H            3.18130987223607       -1.87227373341335       -0.00029325400240
H            3.97388602433975       -3.63032292328363        1.46622431630952
H            5.84943299609415       -5.80608407102879        3.55142967841864
H            4.60778212117851       -4.56579557868348        3.42484180176322
H            5.03273018522433       -5.55260872894865        2.01361929860038
H            8.00520061797649       -5.60800757152046        2.44201665186037
H            7.28194094159669       -5.23023919899384        0.87519872755882
H            8.48040690036156       -4.14742762788477        1.57937725858930
H            6.25268288616762       -2.84815673283472        4.30829416141989
H            7.86363297436698       -2.71920124395368        3.60600898530890
H            7.40452388409443       -4.17569123948679        4.48525276370562
H            7.92561932808579       -1.97534717546721        1.45682403997089
H            9.13221029895794        0.11366362831663        0.34657387589828
H           11.71211941243414        2.81401136552976       -2.38507316870733
H           10.08194308726072        3.05110371477366       -3.00940697105597
H           10.71271530960996        1.41857383965741       -2.80256484232475
H           12.12268367392480        1.99710201782502       -0.12769424084522
H           10.81804968104871        1.50623811036697        0.94645783875082
H           11.21751465492553        0.52899305780695       -0.47881468311888
H            9.71740321657352        3.77378728298656        0.65869511504372
H            9.50038342882842        4.45433814942837       -0.95216513240134
H           11.12474065420921        4.21337695226848       -0.31425375061437
H            8.00114167252460        3.35930962225060       -2.21169667709197
H            5.71142726913942        2.55676383187766       -2.30217639053257
H            4.53949115290844        0.81809315162672       -3.46808253099360
H            2.40441814351436        1.55998138027726       -4.47456711711218
H           -2.05776631098099        3.46211687219110       -3.06398233507848
H           -4.23208014034259        2.96518212399864       -1.99584978138693
