  67
       -110.93767957
 C          5.9001975506       -1.2177451464        0.7914628270
 C          4.7255124867       -1.2520358708       -0.1899491980
 O          5.0884170971       -0.2819051266       -1.2092540071
 C          4.1479432843        0.0148103234       -2.1631604106
 O          3.2376303936        1.0190460356       -1.7031125849
 C          1.9259486087        0.7965933606       -1.8299465410
 O          1.4595736577       -0.1655834391       -2.3965855438
 C          1.1052910414        1.8494465466       -1.1862139383
 C         -0.2822642914        1.7227139918       -1.2171102371
 C         -1.0792526413        2.6490339478       -0.5734966538
 C         -0.4958447073        3.7169845010        0.0899442267
 C          0.8827797060        3.8602625744        0.1030470335
 C          1.6861193221        2.9304225155       -0.5290138985
 C          4.6464250026       -2.6651589092       -0.8231387877
 C          3.2883934622       -3.2324606024       -1.0872965943
 C          2.1673494059       -2.7342251586       -0.5641502587
 C          2.2527060695       -1.5389765076        0.2254517639
 C          3.4302610092       -0.8654957315        0.4602577581
 C          3.1143832930        0.2559219567        1.2835814562
 C          3.8409400438        1.3317320556        1.7956726169
 C          3.1864946321        2.2793049014        2.5492279510
 C          1.8141248610        2.1959732455        2.7872991060
 C          1.0641733070        1.1569668483        2.2788444507
 C          1.7214087051        0.1817796109        1.5419654946
 N          1.2135840484       -0.9225267814        0.8907058015
 C         -0.1455611122       -1.2354875530        0.7988023134
 C         -0.7284354523       -1.4663627445       -0.4483830977
 C         -2.0906391500       -1.6758133525       -0.5379264501
 C         -2.8628522681       -1.6552209118        0.6084699857
 S         -4.6474360402       -1.6896333459        0.4330351104
 O         -5.0240328644       -2.6692875322       -0.5501378096
 O         -5.2444066674       -1.7614187921        1.7400385839
 C         -4.9058533432       -0.0470390804       -0.2533182248
 C         -4.7640598402        1.0460714752        0.5796628656
 C         -4.8741979898        2.3197811419        0.0472697595
 C         -5.1172073353        2.4827231243       -1.3087239680
 C         -5.2588307188        1.3783752224       -2.1341046474
 C         -5.1497155841        0.1028899735       -1.6039053702
 C         -2.2932925809       -1.4645211320        1.8521409750
 C         -0.9284386978       -1.2689860696        1.9524800701
 H          6.1130626738       -0.1961965341        1.0837770495
 H          6.7866009391       -1.6247504090        0.3119553894
 H          5.6613831411       -1.8011879739        1.6762716253
 H          4.6916000595        0.4461217278       -3.0124169296
 H          3.5616519164       -0.8578171007       -2.4867447572
 H         -0.7211583007        0.8929406541       -1.7483123623
 H         -2.1539324634        2.5371734688       -0.5899751071
 H         -1.1173392469        4.4418522476        0.5948654090
 H          1.3330702290        4.6974633005        0.6144955010
 H          2.7596003126        3.0248534230       -0.5103759236
 H          5.1571494886       -3.3677490695       -0.1557773113
 H          5.2263874200       -2.6447374226       -1.7506234182
 H          3.2653672299       -4.1253986257       -1.6946442639
 H          1.2094801466       -3.2018286145       -0.7234304236
 H          4.8936137357        1.4344906480        1.5876228323
 H          3.7397062055        3.1136122309        2.9548541967
 H          1.3289957478        2.9650612639        3.3693683483
 H         -0.0037658723        1.1201769147        2.4303551782
 H         -0.1174786000       -1.4313160969       -1.3372657744
 H         -2.5684917448       -1.8441943689       -1.4901986640
 H         -4.5827023661        0.8851578481        1.6307835216
 H         -4.7703792214        3.1838902294        0.6865051198
 H         -5.1971237765        3.4767695491       -1.7233712978
 H         -5.4516102132        1.5110995660       -3.1878820511
 H         -5.2624796516       -0.7804114515       -2.2129048550
 H         -2.9297018775       -1.4785869504        2.7231286627
 H         -0.4624822683       -1.1404008918        2.9173274479
