  65
  -105.099781156500       0.618786502452811      !
 C         -7.4526348682       -0.8410753313       -0.0671462648
 C         -6.3105653684        0.1903586790        0.0021850677
 C         -6.8857915078        1.6173369448        0.0806457965
 C         -5.4945806875       -0.0714789655        1.2512996321
 C         -6.1051111724       -0.0157214600        2.4964812228
 C         -5.4043494633       -0.2435816980        3.6664735683
 C         -4.0507994217       -0.5336341099        3.6055503748
 C         -3.4177414725       -0.5953866119        2.3844542496
 C         -4.1255597243       -0.3693967178        1.1967271112
 N         -3.4645939950       -0.4423531012       -0.0122011505
 C         -2.0774929184       -0.7717383438       -0.0206161287
 C         -1.6902635956       -2.1078806043       -0.0593366543
 C         -0.3494310615       -2.4407485940       -0.0679231449
 C          0.6338880856       -1.4509218833       -0.0392140417
 N          1.9336358836       -1.7382239123       -0.0455557543
 C          2.8587383370       -0.7924501277       -0.0184771820
 C          4.2504039000       -1.1212969211       -0.0230772812
 C          4.6221639297       -2.4701123125       -0.0578938068
 C          5.9547486522       -2.8317252262       -0.0595439082
 C          6.3251804907       -4.1932900283       -0.0957529801
 N          6.6339624513       -5.2976566326       -0.1259146977
 C          6.9477621689       -1.8334612115       -0.0244504415
 C          6.5895780883       -0.5124955137        0.0083651587
 C          5.2421423321       -0.1061078590        0.0084971028
 C          4.8403446603        1.2735134648        0.0382649001
 C          5.7602444622        2.3383769065        0.0620938247
 C          5.3548092378        3.6457552739        0.0877291633
 C          3.9810742815        3.9567398781        0.0911592906
 C          3.5636246837        5.3048480131        0.1165169659
 N          3.2324886355        6.4030450527        0.1372363648
 C          3.0496469472        2.9375514568        0.0690111793
 C          3.4584437998        1.5992857548        0.0420434004
 C          2.4593817572        0.5759027659        0.0170649936
 N          1.1711796260        0.8786364137        0.0244742476
 C          0.2288653125       -0.0634796790       -0.0007215702
 C         -1.1299984437        0.2424381455        0.0087086082
 C         -4.1071306644       -0.2315557576       -1.2148786042
 C         -3.3825173640       -0.3277693772       -2.4100945464
 C         -3.9960424643       -0.1228504273       -3.6254998568
 C         -5.3469831999        0.1819128197       -3.6731264641
 C         -6.0656269918        0.2763974769       -2.4955118748
 C         -5.4749118628        0.0745592612       -1.2558661609
 H         -7.0412612876       -1.8475443743       -0.1155622155
 H         -8.0680312411       -0.6793235062       -0.9474600014
 H         -8.0897561864       -0.7724955295        0.8098180053
 H         -6.0750014410        2.3420566466        0.1253187733
 H         -7.4951859748        1.8373161591       -0.7913250188
 H         -7.5025277013        1.7374114458        0.9667581919
 H         -7.1580954142        0.2112995578        2.5622335543
 H         -5.9104766523       -0.1934237993        4.6180200278
 H         -3.4883508222       -0.7108068408        4.5095236350
 H         -2.3637110879       -0.8198708586        2.3385171113
 H         -2.4449616789       -2.8789626450       -0.0818732145
 H         -0.0347107381       -3.4715179734       -0.0972933711
 H          3.8444596965       -3.2185873192       -0.0833540908
 H          7.9881704032       -2.1224436309       -0.0236666511
 H          7.3734849559        0.2271099723        0.0354234541
 H          6.8186733461        2.1334341961        0.0582749816
 H          6.0785894029        4.4468749892        0.1045119892
 H          1.9918152572        3.1534701907        0.0719122291
 H         -1.4329621054        1.2771019024        0.0385686433
 H         -2.3311951991       -0.5659401591       -2.3746669022
 H         -3.4209903575       -0.2015103413       -4.5352842197
 H         -5.8378034199        0.3445101583       -4.6201227013
 H         -7.1163251865        0.5153776729       -2.5507577784
  65
  -105.099155405500       0.319128494498398      !
 C         -6.8840858948        1.3714421880       -0.8669815994
 C         -6.3062926877        0.1733087460       -0.0899595999
 C         -7.4445005103       -0.6546542530        0.5359409629
 C         -5.5401954314       -0.7017006570       -1.0596866787
 C         -6.2008717108       -1.2664125798       -2.1420402750
 C         -5.5448271349       -2.0481491831       -3.0745723529
 C         -4.1828378963       -2.2648840629       -2.9428311500
 C         -3.5015956336       -1.7188850244       -1.8781974722
 C         -4.1678124091       -0.9496491167       -0.9148703446
 N         -3.4622371463       -0.4322812604        0.1547089660
 C         -2.0771228673       -0.7372959474        0.2733424645
 C         -1.6844596117       -2.0094696012        0.6810253095
 C         -0.3432062364       -2.3276826326        0.7686048582
 C          0.6385816473       -1.3840738407        0.4629880268
 N          1.9383580617       -1.6656861275        0.5119823280
 C          2.8609060993       -0.7612721052        0.2251872707
 C          4.2520624628       -1.0905988893        0.2528387307
 C          4.6263046213       -2.4036309793        0.5605655684
 C          5.9577690598       -2.7689352576        0.5779064902
 C          6.3299815408       -4.0962078922        0.8814339473
 N          6.6416222679       -5.1723175800        1.1279430219
 C          6.9474050306       -1.8105192977        0.2844958421
 C          6.5871220513       -0.5235207236       -0.0123498296
 C          5.2408008745       -0.1143562137       -0.0383487229
 C          4.8371713241        1.2305527601       -0.3444925786
 C          5.7552053905        2.2648842436       -0.6055320499
 C          5.3476810210        3.5400314201       -0.8919466968
 C          3.9736971487        3.8474165934       -0.9334766692
 C          3.5549432580        5.1638804952       -1.2227542188
 N          3.2214462905        6.2361862354       -1.4569319748
 C          3.0441075622        2.8571440269       -0.6846645293
 C          3.4551629871        1.5526412430       -0.3880855344
 C          2.4583144193        0.5614241182       -0.1237275001
 N          1.1697360505        0.8544714919       -0.1891330985
 C          0.2294937470       -0.0535456619        0.0716376179
 C         -1.1294761966        0.2332631882       -0.0258698034
 C         -4.0618194899        0.3634803001        1.1116567412
 C         -3.3069122159        0.8336234542        2.1943795340
 C         -3.8735397341        1.6435402587        3.1529220250
 C         -5.2099231588        1.9958990682        3.0561927339
 C         -5.9648895824        1.5133190555        2.0033762097
 C         -5.4217336028        0.6938915175        1.0234921601
 H         -6.0759064477        1.9512539771       -1.3085511382
 H         -7.4533776518        2.0216260825       -0.2090871141
 H         -7.5403091100        1.0351578080       -1.6645157813
 H         -8.0290788009       -0.0508721896        1.2239569437
 H         -8.1114626750       -1.0381081591       -0.2307174567
 H         -7.0307805808       -1.4981618964        1.0852998289
 H         -7.2585800396       -1.0931318205       -2.2675102247
 H         -6.0897902858       -2.4757683565       -3.9017522359
 H         -3.6502362565       -2.8573992980       -3.6708434492
 H         -2.4395831930       -1.8821492827       -1.7870391508
 H         -2.4364690213       -2.7462909012        0.9185650855
 H         -0.0267965675       -3.3121624633        1.0737260633
 H          3.8511490484       -3.1229363387        0.7783140140
 H          7.9867105769       -2.1031990086        0.2955154889
 H          7.3680555179        0.1855195462       -0.2353559032
 H          6.8137826174        2.0625277959       -0.5777840346
 H          6.0699199457        4.3189252686       -1.0859449020
 H          1.9861529604        3.0711542652       -0.7095405117
 H         -1.4336541040        1.2200416685       -0.3375856482
 H         -2.2688790933        0.5543956220        2.2796455307
 H         -3.2728133721        1.9980778472        3.9763904066
 H         -5.6630914664        2.6338723302        3.7989750973
 H         -7.0078585774        1.7851501016        1.9498135362
  65
  -105.097146244800       3.807318913969226E-002 !
 C         -7.5653942572        0.6981634425        0.0392073439
 C         -6.0374280777        0.7084580736       -0.0593761837
 C         -5.5651961020        2.1680869251       -0.2529002623
 C         -5.3799296872        0.1989430537        1.2075309265
 C         -5.9664924419        0.3261870253        2.4568309360
 C         -5.2971192683       -0.0307133891        3.6152638989
 C         -4.0040264506       -0.5196442946        3.5403871400
 C         -3.3993541171       -0.6681140916        2.3113421657
 C         -4.0769097204       -0.3199259531        1.1385400925
 N         -3.4699653113       -0.5194034215       -0.0877393799
 C         -2.0867470945       -0.8541167252       -0.1158713136
 C         -1.6744533805       -2.1813992328       -0.2086853192
 C         -0.3279184208       -2.4897139718       -0.2256477495
 C          0.6387429608       -1.4863304350       -0.1421279886
 N          1.9435191709       -1.7493170234       -0.1528348903
 C          2.8509505007       -0.7902258491       -0.0640224827
 C          4.2488074569       -1.0914091343       -0.0758372857
 C          4.6475189018       -2.4281362219       -0.1896681812
 C          5.9870053572       -2.7627356827       -0.2081457936
 C          6.3835347772       -4.1126188781       -0.3215526064
 N          6.7113743050       -5.2081083408       -0.4134452899
 C          6.9601053997       -1.7488485280       -0.1132570342
 C          6.5757004630       -0.4397739415       -0.0004914788
 C          5.2204664013       -0.0611093954        0.0247167433
 C          4.7920638544        1.3051807402        0.1476691842
 C          5.6901197240        2.3824930874        0.2650478254
 C          5.2582550759        3.6761064970        0.3847658377
 C          3.8786949749        3.9600222654        0.3916010297
 C          3.4326456527        5.2932687283        0.5169856014
 N          3.0746172546        6.3782828646        0.6193411572
 C          2.9683183473        2.9281533910        0.2773872700
 C          3.4042320087        1.6037320639        0.1565171881
 C          2.4259023558        0.5662729337        0.0474811497
 N          1.1325364920        0.8447304875        0.0554543131
 C          0.2084632277       -0.1106385764       -0.0349063374
 C         -1.1554023240        0.1708454811       -0.0281177379
 C         -4.2172863892       -0.5658618996       -1.2493687946
 C         -3.6693391813       -1.1084912380       -2.4159287162
 C         -4.4270954975       -1.2187440429       -3.5615846649
 C         -5.7433072164       -0.7898130467       -3.5596701733
 C         -6.2757348587       -0.2113534971       -2.4196985801
 C         -5.5339082646       -0.0732541825       -1.2572586414
 H         -7.9357596506       -0.3155622064        0.1734219035
 H         -8.0097220772        1.1225711967       -0.8558895060
 H         -7.8993242303        1.3102794373        0.8713969740
 H         -4.4811749380        2.2132977002       -0.3321002891
 H         -5.9945875672        2.5820021268       -1.1625263845
 H         -5.8751532104        2.7761187223        0.5941414957
 H         -6.9648325198        0.7207081618        2.5482396109
 H         -5.7826101592        0.0832550733        4.5720838677
 H         -3.4686489271       -0.7913825696        4.4371752589
 H         -2.3977322267       -1.0638852369        2.2491759905
 H         -2.4142211437       -2.9657933011       -0.2618081700
 H          0.0044490777       -3.5129723356       -0.2974965431
 H          3.8850138152       -3.1889910987       -0.2629496357
 H          8.0060531067       -2.0164017231       -0.1305882614
 H          7.3446292974        0.3126492269        0.0695024138
 H          6.7523306297        2.1982551603        0.2643072363
 H          5.9654982805        4.4869602425        0.4756171498
 H          1.9064215726        3.1229547408        0.2812074615
 H         -1.4742867255        1.1981502174        0.0500632601
 H         -2.6448704858       -1.4455165921       -2.4172485386
 H         -3.9911079432       -1.6433358972       -4.4528260694
 H         -6.3495936055       -0.8837879939       -4.4472816350
 H         -7.2913730199        0.1457742873       -2.4587718696
  65
  -105.096710630900       2.401181390909933E-002 !
 C         -7.5658866777        0.7356590139        0.0021865468
 C         -6.0407054178        0.7066740632       -0.1211378576
 C         -5.5483135203        2.1369888139       -0.4432543959
 C         -5.3659091392        0.2892840711        1.1693139483
 C         -5.9402956311        0.4862870131        2.4150691742
 C         -5.2521525205        0.2102986526        3.5846473798
 C         -3.9547399355       -0.2686823894        3.5229926884
 C         -3.3639483761       -0.4895006421        2.2977613715
 C         -4.0586401804       -0.2203375503        1.1144670355
 N         -3.4677473979       -0.4947633412       -0.1069810882
 C         -2.0860441179       -0.8314751975       -0.1284842696
 C         -1.6759589943       -2.1601667447       -0.2155721526
 C         -0.3304765983       -2.4719170362       -0.2339362732
 C          0.6390514636       -1.4715563693       -0.1501818170
 N          1.9428216226       -1.7374680889       -0.1695026946
 C          2.8533083499       -0.7823088907       -0.0720146063
 C          4.2501728056       -1.0861599727       -0.1030735823
 C          4.6448415456       -2.4195316622       -0.2615223867
 C          5.9833540226       -2.7554163938       -0.3069467486
 C          6.3759803630       -4.1015678599       -0.4683219614
 N          6.7005274733       -5.1940941872       -0.5988990488
 C          6.9595548873       -1.7464189672       -0.1931213708
 C          6.5790902511       -0.4408686941       -0.0350286213
 C          5.2249635918       -0.0611022062        0.0181702239
 C          4.8004615596        1.3012763189        0.1885447128
 C          5.7018937683        2.3707989785        0.3447598987
 C          5.2740671360        3.6606468103        0.5105157228
 C          3.8953842427        3.9485569969        0.5259428555
 C          3.4539054618        5.2776624609        0.7015362910
 N          3.1015118271        6.3598487317        0.8459142009
 C          2.9817660782        2.9244775111        0.3735044145
 C          3.4134835506        1.6036016078        0.2072606249
 C          2.4318540626        0.5729105252        0.0670500482
 N          1.1393753967        0.8551357612        0.0757122738
 C          0.2119889892       -0.0954174963       -0.0322314745
 C         -1.1508512429        0.1902876333       -0.0334020996
 C         -4.2402131567       -0.6462319096       -1.2444835216
 C         -3.7123585517       -1.2639692671       -2.3824141003
 C         -4.5030538460       -1.4913137487       -3.4882207075
 C         -5.8324490913       -1.1061374051       -3.4754591682
 C         -6.3435543273       -0.4412961222       -2.3732306877
 C         -5.5669568319       -0.1798614184       -1.2559465873
 H         -7.9540648338       -0.2547314904        0.2288686034
 H         -8.0165962728        1.0919415968       -0.9192960056
 H         -7.8720365247        1.4241395297        0.7841187427
 H         -4.4653434123        2.1578607001       -0.5421234116
 H         -5.9858335420        2.4803460255       -1.3780245978
 H         -5.8355715807        2.8189106738        0.3539944365
 H         -6.9432223085        0.8717545924        2.4935309263
 H         -5.7268814503        0.3782066057        4.5389834260
 H         -3.4053562938       -0.4788398982        4.4278001655
 H         -2.3606890334       -0.8828139484        2.2486347263
 H         -2.4169353260       -2.9437821641       -0.2629030556
 H         -0.0011682324       -3.4961358002       -0.3060761775
 H          3.8801432081       -3.1766079644       -0.3494918084
 H          8.0048355188       -2.0149767176       -0.2317562111
 H          7.3502694787        0.3080250101        0.0475209209
 H          6.7635355321        2.1828807278        0.3405272307
 H          5.9838117182        4.4652771229        0.6320647503
 H          1.9205316666        3.1223236061        0.3843328718
 H         -1.4667121148        1.2184262429        0.0466826605
 H         -2.6776250358       -1.5670910658       -2.3953710846
 H         -4.0814284017       -1.9739584678       -4.3566598271
 H         -6.4650488475       -1.2978005454       -4.3283101669
 H         -7.3701066711       -0.1162696696       -2.4063686591
