124
 energy: -165.958711561747 gnorm: 0.000063488048 xtb: 6.7.1 (edcfbbe)
C            7.83821149192413        3.13441123940310        0.20982579408084
C            6.47730718320339        3.60621235689168       -0.32023193355041
C            6.66852311741313        4.11289248307559       -1.75205383798949
C            5.95702699501119        4.77382137540345        0.53110618848487
C            5.47874545614992        2.46384802927454       -0.23239077870357
C            5.17533417074082        1.91321135645710        1.01122717423108
C            4.22438065500818        0.92198328155202        1.15197520331837
C            3.54919616432455        0.44654286936638        0.03587165794934
N            2.47320030431029       -0.47881502569044        0.15912630707369
C            2.72882468815798       -1.82747689490527        0.31500206395321
C            4.05405433158006       -2.25052393369073        0.47398335047106
C            4.34907410862358       -3.57004098380077        0.71364930914982
C            3.34067169321527       -4.53104826142115        0.82487581314057
C            3.71250093340972       -5.96907330238611        1.15247443189082
C            2.49524895873618       -6.89564577776434        1.21269644061791
C            4.41041041437759       -6.00438618115155        2.51936230744095
C            4.66186734142746       -6.50440416426061        0.07110479568766
C            2.04224423638179       -4.10718017631795        0.62068988867207
C            1.69023611396265       -2.78383022728879        0.32242299088528
B            0.25709425896682       -2.29868304718688        0.00272820983483
C           -1.03544723522563       -3.08396430143924       -0.31999486918795
C           -1.09040940183754       -4.45195037711350       -0.61960229677495
C           -2.26488024511015       -5.14730855448678       -0.83029428126387
C           -2.31430857759250       -6.63154690154967       -1.15888548633905
C           -3.13455357720201       -7.35985278621999       -0.08461077422275
C           -2.97668753623226       -6.81609642059776       -2.53143499288452
C           -0.92509443079299       -7.27299056874543       -1.20767750807142
C           -3.45842201145398       -4.42806345330921       -0.72594625037789
C           -3.45803368158229       -3.07632349520765       -0.48467741304409
C           -2.25707211737041       -2.37628191207864       -0.31703772006353
N           -2.30212989766877       -1.00499850031952       -0.15682498289490
C           -3.55562009789545       -0.33617872981877       -0.05194348695733
C           -4.00463508254874        0.07852304860599        1.19222625595604
C           -5.15156701878185        0.84389259465845        1.30233544765544
C           -5.87956350912950        1.21595553988721        0.17902046420401
C           -7.10051587288737        2.11836858279088        0.24756993290024
C           -7.43234382068603        2.55288905773198        1.67739604912100
C           -6.81747361481478        3.38130097729763       -0.57931206295869
C           -8.31608964907348        1.37657955852385       -0.32489766082727
C           -5.43862383503861        0.75306156979204       -1.05920078973930
C           -4.29385423817153       -0.00917698094287       -1.18144978653727
C           -1.18522885945903       -0.20060992863435       -0.09356539773357
C           -1.32847792002525        1.18376079524897       -0.14083402041834
C           -0.21796553668883        2.00208439821767        0.02038047004798
N           -0.37393653702684        3.39384431803457        0.03210814000097
C            0.64865570573303        4.21606725404939       -0.45090540889879
C            0.94527640952801        5.42130948824520        0.18588038223968
C            1.97120780781294        6.22150240959486       -0.27771985223072
C            2.72180339906479        5.83600237309048       -1.37645697310726
C            2.42780907111953        4.64314161472652       -2.01695173875622
C            1.39921843332148        3.84086902986427       -1.56599169485768
C           -1.55352548911584        3.95915888931586        0.52682126921737
C           -2.19833371038411        3.40848414023747        1.63524555691707
C           -3.38039618387803        3.95179397338728        2.09631315113514
C           -3.93632006181993        5.05725969759870        1.47303650059510
C           -3.29335331389483        5.61829231111206        0.38170473666849
C           -2.11454360031391        5.07631492399025       -0.09215998621250
C            1.04526206137170        1.44472097299532        0.17032237112928
C            1.20715548040127        0.06289085194843        0.10756324023579
C            0.09078849938349       -0.79218865113258        0.00529771242857
C            3.87040555600360        0.95243978291253       -1.21422528246261
C            4.82271756029553        1.94729820349850       -1.34281895279197
H            7.77152112374967        2.81442574494675        1.24593277390907
H            8.20299358262798        2.29778605853305       -0.38265649356265
H            8.56407760065644        3.94249268787700        0.14937794184147
H            5.73129974683339        4.48393133948923       -2.15962845611565
H            7.05694537979730        3.32908651776846       -2.39836092824258
H            7.38424793396441        4.93257516857018       -1.75314203412281
H            6.62604800695619        5.62740001009112        0.44469887975177
H            4.96648676291801        5.07180076009585        0.19211319633042
H            5.88934521074039        4.50110043782923        1.58053317974352
H            5.67369530925565        2.27376667921457        1.89823984550214
H            3.98481189577925        0.52511255799872        2.12772997867034
H            4.85821729857056       -1.53126977583046        0.41748267962147
H            5.38546803990259       -3.84901659446225        0.83450534875244
H            2.81869569758324       -7.90519647960321        1.46005922643931
H            1.98844379260316       -6.93217268749305        0.25123152209182
H            1.79229491646977       -6.57150751101328        1.97676555438695
H            3.74568605356694       -5.61814386740743        3.28954381988875
H            5.31431116710169       -5.40117376598914        2.51671781683118
H            4.68261180028523       -7.02593943413699        2.77799015695672
H            4.92084477110019       -7.54109108756913        0.27773800673240
H            5.58141753110249       -5.92728855407074        0.02853419996880
H            4.18369914358945       -6.45576443012788       -0.90520606353236
H            1.23543334578786       -4.81260474327436        0.71296812799237
H           -0.14933258602600       -4.96545772040178       -0.70754013321932
H           -4.15845217088598       -6.99782685955115       -0.05305753515200
H           -2.68854462712780       -7.20626443832934        0.89604449899671
H           -3.15849052520305       -8.42841116653326       -0.28979235170977
H           -2.40312313851671       -6.29735873034382       -3.29705924685077
H           -3.02236427423666       -7.87239188275853       -2.78971233079062
H           -3.98844471939859       -6.41957605223078       -2.53776260096550
H           -0.42938780095076       -7.19687171961471       -0.24275220171228
H           -0.30341318930967       -6.80609650579748       -1.96829573229410
H           -1.02071330576865       -8.32912772766283       -1.45347474330580
H           -4.40885561692781       -4.92505169038233       -0.85319381074001
H           -4.39924590360795       -2.54837083161066       -0.43346032830025
H           -3.43598982712154       -0.18253220835816        2.07275157664363
H           -5.46032619029314        1.15680885580796        2.28568371298676
H           -8.30755166255097        3.19941886288783        1.66510801390651
H           -7.65891795764356        1.69514427447748        2.30659233917801
H           -6.60752436780401        3.11119297117983        2.11347474811972
H           -7.65614755526531        4.07072856290275       -0.50894259229377
H           -6.66145100366551        3.14275158495932       -1.62767803205941
H           -5.92436616163302        3.87995418613570       -0.20699811659344
H           -9.19852027286155        2.01100363201839       -0.27638309166604
H           -8.50924530647257        0.47229497714801        0.24866999731149
H           -8.15737351050922        1.09463117803463       -1.36201888513400
H           -5.98381329049200        1.00500243260651       -1.95610902266940
H           -3.95365542321785       -0.33782835985981       -2.15265482753417
H           -2.29414637648443        1.63687193362497       -0.29512204367127
H            0.36919599836823        5.71989843733107        1.04966635921381
H            2.19330172474934        7.14912902425962        0.22958075659528
H            3.52439986365729        6.46412225595599       -1.73366494532979
H            2.99689781447303        4.33888947354321       -2.88329469581259
H            1.16814485163406        2.91618068221697       -2.07308910655967
H           -1.76428796807465        2.55198294353508        2.12883050989045
H           -3.86520232602025        3.51436515501255        2.95690158409704
H           -4.85931325165569        5.48304431854153        1.83787143622466
H           -3.71925526696586        6.47970294642830       -0.11202998295713
H           -1.62198457863017        5.50965425091766       -0.95049413894778
H            1.88950346690647        2.09550440688004        0.33000345362529
H            3.35203390924465        0.57730132764270       -2.08454645413286
H            5.03496870617425        2.32204038644065       -2.33013466571853
