124
 energy: -165.869328910458 gnorm: 0.000038255530 xtb: 6.7.1 (edcfbbe)
C            7.84263473863635        3.13142222845688        0.25087212176364
C            6.47330381342346        3.61238712730344       -0.24836584432794
C            6.64608559836405        4.16230316754048       -1.66648845832464
C            5.95738375783380        4.75099953174899        0.64410502764952
C            5.47741472643346        2.46684657707946       -0.18294980917239
C            5.21355954485780        1.85461236689980        1.04154621480899
C            4.26607056652793        0.85867878923718        1.16567205810460
C            3.54606741848555        0.44474343907328        0.05139480213316
N            2.47637279911520       -0.48396733674661        0.16064546971342
C            2.73798390482977       -1.83285988190238        0.30428288139777
C            4.06250474298250       -2.25237398770625        0.44129349583408
C            4.36612992291448       -3.58112814719246        0.67112332092661
C            3.35186039483010       -4.53540188907213        0.79506470495225
C            3.72361004268660       -5.97455264222128        1.10969531953244
C            2.50742191353423       -6.90075178118078        1.19098296208242
C            4.44763151867411       -6.01375487890818        2.46344694745803
C            4.65274819393796       -6.50791439823758        0.00946357322792
C            2.04500332439196       -4.11370150094471        0.60857828330234
C            1.68356422690895       -2.79132663149427        0.30443001447107
B            0.25606466248889       -2.30828411686888       -0.00830673668179
C           -1.03261819230752       -3.08805499092260       -0.32442554519542
C           -1.09884903067066       -4.45634121027925       -0.63314638266907
C           -2.28306859810486       -5.14986879943622       -0.82571598555613
C           -2.33396743244984       -6.63454231679969       -1.14437709340819
C           -3.13269917802807       -7.35845869267804       -0.05062721644069
C           -3.02454689880620       -6.82554363113155       -2.50267190160574
C           -0.94625121214203       -7.27661310778634       -1.21893971564843
C           -3.48003184977592       -4.43750550097716       -0.70494845306484
C           -3.47148412604441       -3.07544411628256       -0.46982389172917
C           -2.26943442667639       -2.38051618828937       -0.32426685294496
N           -2.30666371494046       -1.00788558252558       -0.17281233136304
C           -3.55322958880647       -0.33390396703305       -0.06664803540163
C           -3.96131289272828        0.14729423169753        1.16978085509735
C           -5.10827944464434        0.91052024610108        1.27935250443169
C           -5.87639708583821        1.22240812403561        0.16352226738923
C           -7.09516489873231        2.12732043918490        0.22771734719776
C           -7.39869441463736        2.60639526960457        1.64956931966734
C           -6.82376851327914        3.36297448731575       -0.64327818659914
C           -8.32380337158324        1.37239524974703       -0.29776768511014
C           -5.47405608422318        0.69763821162300       -1.06385248068653
C           -4.33321550086285       -0.06963794360037       -1.18593215818944
C           -1.17964780203521       -0.20169366144338       -0.10574977369773
C           -1.32621817358700        1.18233011442858       -0.16830323320067
C           -0.21902470229817        2.01797684883718        0.01158414351611
N           -0.37272030943938        3.40780355225077        0.02177986829940
C            0.64929358465253        4.22256600360775       -0.47186121047739
C            0.95449641925256        5.43261697713395        0.15520634501059
C            1.98844315193870        6.21867099520488       -0.31162952809689
C            2.73991433074747        5.81731620401344       -1.40547754554903
C            2.43735496318756        4.62068264075537       -2.03645622205963
C            1.40343227650561        3.82960953988849       -1.58014634713311
C           -1.54749457867867        3.97193007635130        0.52548412076754
C           -2.19640100564878        3.40669045057771        1.62594483587544
C           -3.37817006890717        3.94504577257894        2.09134566163341
C           -3.93582937687035        5.05593737995861        1.47770967488390
C           -3.29119175551103        5.62881243599986        0.39208073675489
C           -2.11068767681163        5.09530382511260       -0.08398165078526
C            1.04356241101717        1.44098170899291        0.18148625726008
C            1.20072102840891        0.05885451178904        0.10303040320912
C            0.09099051400056       -0.80428905241351       -0.00411487997069
C            3.82433098699321        1.01644808242569       -1.18272034514024
C            4.77889881457840        2.00945470702890       -1.29444431755649
H            7.79363145376170        2.78915284753408        1.28072318621019
H            8.19978841140767        2.30895984375017       -0.36554765929059
H            8.56595988972659        3.94220100653086        0.19701233491948
H            5.70584107314881        4.55294854705147       -2.04768730422612
H            7.01826769356038        3.39580428746011       -2.34249781804377
H            7.36789851447149        4.97648949693508       -1.65313653368398
H            6.62899312620886        5.60498508989372        0.58768435490631
H            4.96778458153762        5.06417118661196        0.31598690360340
H            5.88891197271170        4.44023729158502        1.68297549128500
H            5.74213946126901        2.16980040351665        1.92825719216078
H            4.06037529689788        0.41235279412467        2.12762016634669
H            4.86758875027447       -1.53554789288287        0.37523070265440
H            5.40365967235074       -3.86022271381533        0.77059303462336
H            2.83526182205438       -7.91084832549462        1.43043644226276
H            1.98272976697073       -6.93508329518727        0.23918843717316
H            1.81890658257872       -6.57737853001098        1.96827344644835
H            3.79742627639252       -5.62979892715049        3.24701159318673
H            5.35148294650190       -5.41094550336103        2.44551738733038
H            4.72362228800060       -7.03654539780326        2.71294431668736
H            4.91300409631724       -7.54568615406473        0.20892529060068
H            5.57220217147445       -5.93214780141408       -0.04800803090395
H            4.15671504634820       -6.45550299334295       -0.95763847748232
H            1.24113860802456       -4.82068362474059        0.70897611599973
H           -0.16089756924072       -4.97256891827905       -0.73234118289695
H           -4.15511972642797       -6.99496289662494        0.00151590027191
H           -2.66553890799062       -7.20243030560949        0.91968104347124
H           -3.16155479138860       -8.42748465862444       -0.25272939034402
H           -2.46768279037749       -6.30871918416506       -3.28174474103157
H           -3.07234691235034       -7.88317837062120       -2.75496410693330
H           -4.03708154863169       -6.43150391348549       -2.48972543315135
H           -0.43179329178743       -7.19827535975389       -0.26415562900724
H           -0.33935527494445       -6.81137676568024       -1.99226773696283
H           -1.04726792194978       -8.33330844780481       -1.46040608769466
H           -4.43235492793716       -4.93362408477962       -0.81078546001919
H           -4.41257133783080       -2.54938977777660       -0.40610421737896
H           -3.36231042182100       -0.06740621734880        2.04255105570550
H           -5.38701880652396        1.26954478398305        2.25561393507716
H           -8.27798396263317        3.24727481547391        1.63518194144775
H           -7.60602407078250        1.76802677246256        2.31076872636506
H           -6.56862257168352        3.18358621220737        2.04933952517517
H           -7.66337719330292        4.05250628468397       -0.58738190489552
H           -6.67705219273505        3.08935909142580       -1.68449897280474
H           -5.92850237159304        3.87583866376077       -0.29612137127271
H           -9.20449930419890        2.00877207905429       -0.24433900199258
H           -8.50382866403832        0.48310437758712        0.30283338584097
H           -8.19068392739031        1.06460092232099       -1.33105087306210
H           -6.04836182305832        0.90389566377527       -1.95413858963049
H           -4.02584744661673       -0.44844742162870       -2.14971491883949
H           -2.29161981554060        1.63304865926175       -0.33563947695625
H            0.37750851747061        5.74348860430928        1.01399924930857
H            2.21708868985562        7.14903511736552        0.18779098685500
H            3.54854175748511        6.43575945457662       -1.76559543811081
H            3.00442727415056        4.30621111477028       -2.90051894587429
H            1.16527861234440        2.90254457383381       -2.08012733101094
H           -1.76064494397119        2.54679313254051        2.11261683027733
H           -3.86213600871557        3.50075327981071        2.94893983486243
H           -4.85999091467437        5.47676869512957        1.84494714120729
H           -3.71829043965539        6.49415728678357       -0.09377052736704
H           -1.61652995399636        5.53799528269448       -0.93657249426353
H            1.88857142454499        2.08832480841739        0.35507387177844
H            3.27384117086325        0.68733476883022       -2.05180150967528
H            4.96088652911441        2.43042011665039       -2.26879446016185
