124
 energy: -165.869327698544 gnorm: 0.000079985927 xtb: 6.7.1 (edcfbbe)
C            8.13522940654344        2.23654014883899        0.29720927945178
C            6.83536407307676        2.85759030514278       -0.23216987014461
C            7.09162663431756        3.36773332828299       -1.65251297199375
C            6.43146160418091        4.05640961036642        0.63895458763902
C            5.71865986304944        1.82903969386987       -0.17311795804789
C            5.37232353832288        1.26046171063165        1.05181713137267
C            4.31799477568584        0.37749108918234        1.16948960956996
C            3.57085670705727        0.03752592001786        0.04827842513923
N            2.40136350995330       -0.76340042553562        0.15181120616692
C            2.50872704958227       -2.13329346812509        0.29362587705202
C            3.77828323192479       -2.69919253778791        0.42391305261609
C            3.93176766046749       -4.05438282353533        0.64847275706084
C            2.81709426767830       -4.88880773632792        0.77469512756769
C            3.02655088366128       -6.36225625109384        1.08051559124635
C            1.71442154250708       -7.14601270018143        1.16747298407821
C            3.75185361496932       -6.49028432943838        2.42805783801747
C            3.88127178568705       -6.99082477145212       -0.02976844918831
C            1.56492523049811       -4.32188585575567        0.59811743449552
C            1.35259704755493       -2.96617392650805        0.29950468789694
B           -0.01333209976998       -2.32342320645506       -0.00072799646449
C           -1.38618491911696       -2.95124957288724       -0.30154194249818
C           -1.61233175619092       -4.30367072322150       -0.60442844458143
C           -2.87056466960495       -4.85840784661576       -0.77686891870787
C           -3.09516242586470       -6.32868923174743       -1.08699054516244
C           -3.94496312286670       -6.95445446790137        0.02864677709980
C           -3.83379159006065       -6.44530194073834       -2.42831766589388
C           -1.79050457488524       -7.12299365773754       -1.18933493178891
C           -3.97673698484888       -4.01437665920039       -0.64021783657404
C           -3.80961693259871       -2.66137097843517       -0.41236985558750
C           -2.53416303147985       -2.10707764536047       -0.28903380461588
N           -2.41245333852743       -0.73839945268295       -0.14650594095149
C           -3.57217803260229        0.07440082221815       -0.03186255918859
C           -3.90231541878999        0.61598434753615        1.20305649715597
C           -4.95479209886700        1.50411596166124        1.31862019027074
C           -5.70288591050663        1.88432520574389        0.21031106358967
C           -6.81247897678314        2.91987738603769        0.27958419312422
C           -7.03724525293398        3.44829466950338        1.69859643809399
C           -6.42053007196797        4.10622179726280       -0.61377764084483
C           -8.12596860413780        2.29938846799936       -0.21579466433420
C           -5.38260231884006        1.30113904876956       -1.01492698665903
C           -4.33709778951581        0.40923117327122       -1.14281905633495
C           -1.19951852679203       -0.06649401189128       -0.09715455749191
C           -1.18720009291951        1.32468872940293       -0.17373871199717
C            0.00961653332999        2.02940731099947       -0.01038147831150
N            0.01911291584353        3.42758806676402       -0.01927285888745
C            1.12823178476744        4.10991827647762       -0.52595505098217
C            1.57703653523833        5.28267755775003        0.08538285049415
C            2.69520981996308        5.93484270465732       -0.39340764029207
C            3.38994981508923        5.43387871127438       -1.48368957875453
C            2.94530744624789        4.27412387330398       -2.09922867247720
C            1.82629362048180        3.61709204876540       -1.63111716937181
C           -1.07925454887042        4.13320096058681        0.47833062803419
C           -1.78658309297262        3.66434504877368        1.58794932697798
C           -2.89452081929622        4.34555489863258        2.04780155203150
C           -3.31893155161888        5.50589365726118        1.41925743126974
C           -2.61483697415593        5.98303991740919        0.32433169782372
C           -1.50749483774784        5.30679337172622       -0.14610418907722
C            1.19852729533111        1.31269439459739        0.16100810045557
C            1.19618083203578       -0.07890926903296        0.09508446081580
C           -0.00552159118602       -0.81021666425663       -0.00027338010313
C            3.92741769013091        0.56325975615280       -1.18585351680917
C            4.98849453250368        1.44264194913270       -1.29107588166810
H            8.03238885793250        1.91638534024990        1.33018498808049
H            8.41007389366753        1.37131438506564       -0.30263070796556
H            8.94389225583259        2.96243809802543        0.24630713159626
H            6.20693287067525        3.85508635881884       -2.05473451804151
H            7.38802318278850        2.55652306530683       -2.31366650998356
H            7.89868735071743        4.09739977619503       -1.63451511070377
H            7.19397164628086        4.83066876779671        0.58769382706227
H            5.48863652662647        4.47262975477912        0.28840066856261
H            6.30978269302312        3.76700643760561        1.67914333346060
H            5.92096406445718        1.52237556384797        1.94364206213726
H            4.05123796246899       -0.03546239207467        2.13133241121710
H            4.65833814232138       -2.07679967040304        0.35608350404344
H            4.93177505184970       -4.44875694887824        0.74172154624109
H            1.92812396534516       -8.18768532995051        1.40063119808201
H            1.18253843971221       -7.11670394317580        0.21950676095859
H            1.07222961446627       -6.75075177190678        1.95116072698318
H            3.15569100491018       -6.03870709737737        3.21851000643800
H            4.71835562212949       -5.99431296100806        2.40518360946851
H            3.91148130603630       -7.53907972827324        2.67110903667847
H            4.02505096300665       -8.05226312585397        0.16300944875253
H            4.85899255806708       -6.52141962803123       -0.09253218843259
H            3.38662897571701       -6.87803836680375       -0.99241978231268
H            0.68736422220090       -4.93426226129495        0.70251671334639
H           -0.74095259577155       -4.92374111707083       -0.71517905253519
H           -4.91789753134527       -6.47674462815872        0.10237868093691
H           -3.44044280815475       -6.84988216588356        0.98709296227956
H           -4.09974834339499       -8.01380917819401       -0.16704123600204
H           -3.24120554396326       -5.99543889436605       -3.22242966559580
H           -4.00416629738094       -7.49178921321650       -2.67402392642848
H           -4.79600428167632       -5.94169121305110       -2.39470034879815
H           -1.25053017757245       -7.10381758264100       -0.24571283481658
H           -1.15147602988145       -6.72853968152793       -1.97602046902187
H           -2.01498660195409       -8.16143975571679       -1.42671601432744
H           -4.98086986578915       -4.39945125837666       -0.72794165120510
H           -4.68374670428241       -2.03167255156907       -0.33655479053268
H           -3.31619708388586        0.34754993193986        2.06970048586163
H           -5.17485413744412        1.90532956639195        2.29345694034015
H           -7.84066858400772        4.18211348154190        1.68810966397338
H           -7.32448513753847        2.64674488749063        2.37538968928292
H           -6.14204638344546        3.93559939682307        2.07692600862438
H           -7.17781575456035        4.88513350509235       -0.55587203654119
H           -6.32197135001304        3.80415522194655       -1.65280359173048
H           -5.46850723905884        4.52140541942997       -0.28770066877258
H           -8.92961458210122        3.03035702163355       -0.15832407942215
H           -8.39339000546914        1.44351108403609        0.40059493848348
H           -8.04526742573745        1.96529069429847       -1.24632705495040
H           -5.94550415464003        1.55810966199487       -1.89929049111164
H           -4.09094284142211       -0.01498967783701       -2.10526389494907
H           -2.09598531260072        1.88087787053888       -0.34093271415857
H            1.04412268442741        5.67010416314165        0.94152859258690
H            3.03437757456999        6.83748858031888        0.09391794063092
H            4.26500526906060        5.94757473254762       -1.85307463947858
H            3.46824065783935        3.88402723684372       -2.96030507682821
H            1.47797916898098        2.71893105624939       -2.11913077077022
H           -1.45403664306259        2.76585174789698        2.08620217888736
H           -3.42448914576263        3.97397294358406        2.91273877063924
H           -4.18547066465299        6.03831562706631        1.78212250503754
H           -2.93803115190132        6.88604424528220       -0.17305915517924
H           -0.96719557650357        5.67589664863214       -1.00570868500593
H            2.11295844583181        1.86079772931059        0.32375471336339
H            3.35491796240045        0.29055002250964       -2.06019991727972
H            5.22902044477575        1.83262104052998       -2.26562597843031
