  109
       -168.03817821
 C          6.9605145241        4.5106747124       -1.8719808341
 C          7.6522286529        4.1435451196       -0.7281368577
 C          7.1152103411        3.2222947638        0.1488017393
 C          5.8698640880        2.6479492995       -0.1121104162
 N          5.3253529125        1.7073441046        0.7698815641
 C          6.1611395943        0.7652201869        1.3782178173
 C          5.9162004729        0.3379554512        2.6843156053
 C          6.7420936290       -0.5961149078        3.2759051483
 C          7.8262203902       -1.1137424250        2.5852105044
 C          8.0749114216       -0.6929063045        1.2885905131
 C          7.2502427631        0.2341825503        0.6839716922
 C          3.9558339449        1.6979277055        1.0137807689
 C          3.2728030157        0.4941980347        1.2542148465
 C          1.9199446072        0.4815551554        1.4437140233
 C          1.1421953956        1.6686131724        1.4101428560
 C         -0.2743587531        1.6200216813        1.5263990601
 C         -1.1203185187        2.6955968515        1.1121200534
 C         -2.4654514429        2.5495267707        1.0109702994
 C         -3.0913424018        1.2949482880        1.2822877393
 C         -4.4053363885        1.0850701354        0.8429378215
 N         -5.2881848500        2.0701179571        0.6286675471
 C         -6.4248874416        1.4850953006        0.2587438952
 C         -7.6785451859        2.1125812115        0.0008627788
 C         -7.8338347658        3.4912844936        0.1641036288
 C         -9.0588872406        4.0828823847       -0.0403022858
 C        -10.1436073132        3.2911905047       -0.4029475149
 C         -9.9989360694        1.9310813141       -0.5745252383
 C         -8.7635907223        1.2949490437       -0.3910038992
 C         -8.5648323707       -0.1272285158       -0.6127140348
 C         -9.5854122329       -0.9380832158       -1.1170471459
 C         -9.3960434621       -2.2755720676       -1.3881664468
 C         -8.1454840789       -2.8565691107       -1.1857936752
 C         -7.1182309452       -2.1028363739       -0.6820106430
 C         -7.2978451717       -0.7425155582       -0.3566319517
 C         -6.2724909760        0.0749609814        0.1641772619
 N         -4.9812385429       -0.1724062746        0.5545179214
 C         -4.2509403234       -1.3668190776        0.5779294465
 C         -4.6848803953       -2.4691555137        1.3129203738
 C         -3.8766388217       -3.5877043058        1.3949965471
 C         -2.6211538669       -3.5984274876        0.8103410480
 C         -2.1665899120       -2.4945628183        0.0901159976
 C         -0.7869463506       -2.4106699768       -0.4088583507
 C         -0.4961353770       -1.7721424341       -1.6218301714
 C          0.7979987833       -1.5849014471       -2.0606414438
 C          1.8332352953       -2.0506662731       -1.2625522916
 C          1.5615937687       -2.6945038509       -0.0337233783
 C          0.2530975703       -2.8777612135        0.3849343777
 C          2.8346265323       -2.9894071820        0.5628856514
 C          3.2153724955       -3.5967361587        1.7518718328
 C          4.5621201793       -3.7258122966        2.0269121840
 C          5.5235429849       -3.2754292360        1.1254710935
 C          5.1697610848       -2.6641176403       -0.0618708488
 C          3.8176312998       -2.5053380224       -0.3315498823
 N          3.1984149454       -1.9446740843       -1.4309871506
 C          3.8499715881       -1.3208621145       -2.5039225957
 C          3.5247456431       -1.6536475798       -3.8154762110
 C          4.1718011905       -1.0284151846       -4.8654072578
 C          5.1497558811       -0.0789206763       -4.6192354522
 C          5.4783330419        0.2493300703       -3.3143717551
 C          4.8295211441       -0.3632521131       -2.2588154721
 C         -3.0123772684       -1.4018664291       -0.0589494872
 C         -2.2857741024        0.3150667628        1.9421468946
 C         -0.9429083421        0.4739684611        2.0472784484
 C          1.8586750597        2.8759305813        1.2036291668
 C          3.2124403529        2.8905266856        1.0120377834
 C          5.1761305116        3.0219994277       -1.2646088283
 C          5.7215410227        3.9466625056       -2.1328140282
 H          7.3838297751        5.2317526443       -2.5543174119
 H          8.6146278956        4.5839490965       -0.5136683342
 H          7.6503425492        2.9451266311        1.0452411171
 H          5.0828497668        0.7541946444        3.2303727294
 H          6.5436428712       -0.9152358525        4.2880822260
 H          8.4735177373       -1.8387993198        3.0547483479
 H          8.9134661583       -1.0958279529        0.7397403631
 H          7.4429798671        0.5513500377       -0.3308119171
 H          3.8246885520       -0.4342070870        1.2622146243
 H          1.4300104956       -0.4699581371        1.5694808826
 H         -0.6755377805        3.6332967658        0.8177661519
 H         -3.0922125888        3.3471345429        0.6442927522
 H         -6.9689042868        4.0635681202        0.4612819659
 H         -9.1827931679        5.1481223580        0.0858000105
 H        -11.1126367674        3.7453877050       -0.5531201707
 H        -10.8707311256        1.3597853089       -0.8515944148
 H        -10.5562224332       -0.5142961382       -1.3185463350
 H        -10.2112331119       -2.8680975284       -1.7760513626
 H         -7.9844564201       -3.8959225657       -1.4316611686
 H         -6.1461564521       -2.5510328030       -0.5546739823
 H         -5.6345738715       -2.4332068963        1.8259613708
 H         -4.2163321138       -4.4482679277        1.9524660868
 H         -1.9903144859       -4.4687045213        0.9109266267
 H         -1.3120717593       -1.4233332480       -2.2370251442
 H          0.9944886857       -1.0718067910       -2.9897937664
 H          0.0484310228       -3.3410622690        1.3385373070
 H          2.4701665412       -3.9608491818        2.4430152555
 H          4.8800719786       -4.1908411153        2.9479486720
 H          6.5693482722       -3.4051053272        1.3588549338
 H          5.9243929036       -2.3282664368       -0.7566667189
 H          2.7779107409       -2.4103150381       -4.0041339850
 H          3.9164181507       -1.2904306917       -5.8815269461
 H          5.6550557948        0.4035636490       -5.4421349840
 H          6.2341860900        0.9956770831       -3.1170305630
 H          5.0656454745       -0.0989304575       -1.2403843784
 H         -2.6894236513       -0.5426435500       -0.6265020121
 H         -2.7630659508       -0.5325373446        2.4100563572
 H         -0.3697461613       -0.2746568495        2.5727590978
 H          1.3334998365        3.8175374570        1.2287236541
 H          3.7286324658        3.8301189892        0.8741981486
 H          4.2175844997        2.5726813385       -1.4779485668
 H          5.1782504195        4.2213599479       -3.0247607975
