76
 energy: -116.179610297721 gnorm: 0.000035611474 xtb: 6.7.1 (edcfbbe)
N           10.50055360651840       -0.84653082025144        0.88808593606245
C            9.38253123576126       -0.67100374323279        0.70332627723317
C            8.00493955204134       -0.45454203956604        0.47537585704746
C            7.46082046583075       -0.69103468114360       -0.78805287443882
C            6.11467900445001       -0.47976033505752       -1.00391160327918
C            5.29153643179141       -0.02744343100123        0.02606975765000
C            3.85234311729450        0.20049098356067       -0.21458290796246
C            3.34120737284892        1.50588720921882       -0.19128079425104
C            4.17538100712731        2.63388306140915        0.02841544836850
C            3.66089714076037        3.89226747275520        0.08490302194312
C            2.27571165865318        4.10058686574736       -0.06648656562025
C            1.44644238526132        3.04929471763851       -0.30858074831861
C            1.94534367661439        1.72384006598561       -0.40973184296056
C            1.10440726821636        0.63735580664596       -0.69320934692931
C           -0.33020338173550        0.85530918124217       -0.95676947445771
C           -0.74507312572837        1.59988862989757       -2.06006380324516
C           -2.08850459121846        1.76956655702811       -2.34640550685697
C           -3.02827635693947        1.17305395775637       -1.52125408091675
C           -2.61583180068299        0.42888603825198       -0.40699076117017
C           -1.28057392476339        0.27399151507183       -0.11631739198429
C           -3.80553870500198       -0.19511701069371        0.29507628965447
C           -3.61238468697061       -1.69597571494543        0.17900037054685
C           -4.11605532467947       -2.39988860626444       -0.90666966452621
C           -3.85232765097163       -3.75095737376565       -1.05057400336407
C           -3.07251987280969       -4.41304867433083       -0.11875889302031
C           -2.56029562477318       -3.71598912353400        0.96225575345806
C           -2.82712149878681       -2.36737141856787        1.10975231773785
C           -3.99854819174333        0.26542099455968        1.72359301896815
C           -4.78118306598771       -0.48117590340034        2.59693751622238
C           -5.01365602572890       -0.03705003846078        3.88569638482675
C           -4.47153673714189        1.16145167471404        4.31770532344640
C           -3.69880237762881        1.91394614937619        3.45080249352284
C           -3.46699007556174        1.47142916305233        2.16032063523905
C           -4.95517228655844        0.33717021344618       -0.53832909401013
C           -6.30799112393315        0.13930216333049       -0.36516884558311
C           -7.18839638263730        0.74203074641529       -1.25380368818422
C           -6.72030444923012        1.53035024915976       -2.29397995918874
C           -5.36195050877929        1.73738635903847       -2.47048515883231
C           -4.47928592796097        1.13888939093660       -1.58660627408015
C            1.61950009883254       -0.66897043656635       -0.72765115264827
C            0.80616857427441       -1.79205457409454       -1.03555006480694
C            1.31029601311935       -3.05595957784832       -1.02232750296922
C            2.66454847507794       -3.27803750037440       -0.70479076200206
C            3.48736817873191       -2.22686054359350       -0.44091562345399
C            3.00709590273564       -0.89072774235376       -0.46341123935882
C            5.84395981972527        0.20774283228840        1.28402447881157
C            7.18778108872772       -0.00431237199375        1.51349655372979
H            8.09881168981497       -1.03784077214431       -1.58773340893715
H            5.68854358158471       -0.65849381126497       -1.98041714966762
H            5.23710580972579        2.47743537787302        0.14963372004127
H            4.30906871890742        4.73965234143282        0.25315389909826
H            1.87994211210347        5.10271943741010        0.00815888215652
H            0.38508172859960        3.21039631990772       -0.42336326767281
H            0.00264014907681        2.03248845507565       -2.70950655956930
H           -2.39482638810668        2.34390436729170       -3.20798637557875
H           -0.95805818610750       -0.29099009444812        0.74576694605859
H           -4.71755634145512       -1.89022222374406       -1.64527283317600
H           -4.25505142832934       -4.28611942871398       -1.89822432291055
H           -2.86416274932396       -5.46653490449400       -0.23422429565278
H           -1.94743060594807       -4.22306604178283        1.69327313586505
H           -2.42847872421780       -1.83309442964824        1.96014732571784
H           -5.20144720682783       -1.42127752316374        2.26901962899227
H           -5.62113504010429       -0.62894817508021        4.55490930886245
H           -4.65239981777171        1.50752634239930        5.32463902972725
H           -3.27485217850593        2.85196280559770        3.77862400328782
H           -2.86724043441095        2.06790696022989        1.48812529204871
H           -6.67964115368903       -0.47249126290178        0.44327511380314
H           -8.25149401798910        0.59487106960572       -1.13242146475915
H           -7.42403090121321        1.98925212613375       -2.97307908961652
H           -4.99938453675907        2.35389657922488       -3.27960947101730
H           -0.23223756897913       -1.63236099617759       -1.28355340610627
H            0.67258319876901       -3.89659413373316       -1.25257051975724
H            3.04531516016350       -4.28846282865914       -0.67988394767611
H            4.52656654552235       -2.39939955372413       -0.20250650478462
H            5.20618276998215        0.55308626898692        2.08469574535900
H            7.61453175659427        0.17476626283228        2.48953149495084
