76
 energy: -116.179490302867 gnorm: 0.000048274177 xtb: 6.7.1 (edcfbbe)
N           10.79183850508950       -0.29863770652349        1.32570946243233
C            9.67652132718391       -0.23845950763834        1.06621599101383
C            8.30236086700763       -0.16366699972237        0.74573970798433
C            7.90055862034550       -0.08166746998192       -0.58842931687940
C            6.55762307626601       -0.00530472367039       -0.89507643184283
C            5.59606215772229       -0.01341080685846        0.11390706572112
C            4.16053736521354        0.07057300520956       -0.22443235355986
C            3.63810837372406        1.26705232645337       -0.73572060062494
C            4.44328637630714        2.42481678472621       -0.90166076132661
C            3.91915990113455        3.58771474014601       -1.37540706475019
C            2.54973764494999        3.67113279239488       -1.69549760330357
C            1.74164077657293        2.58740098887931       -1.54042041536728
C            2.25084288522651        1.34808089335762       -1.07076463802307
C            1.42390096161890        0.22814754401161       -0.89794738387699
C           -0.00306099122366        0.29850410596154       -1.26672526888120
C           -0.37967825124327        0.48005995539733       -2.59661824596341
C           -1.71299703141170        0.51630466682847       -2.96555400116350
C           -2.68112053469942        0.36114054411925       -1.98664316767597
C           -2.30719738011530        0.18253145782434       -0.64728250506025
C           -0.98119515972750        0.15412603721349       -0.28222951421659
C           -3.52622694777329       -0.02964694480932        0.22844762313744
C           -3.39015245311282       -1.42288056821687        0.81378961582967
C           -3.91228983170876       -2.52879234275132        0.15631904667706
C           -3.70810887855213       -3.80333835084898        0.65574963653888
C           -2.97011750465683       -3.99024869090190        1.81123922682994
C           -2.43829137800932       -2.89298878000624        2.46701996980189
C           -2.64528156786450       -1.61883214009864        1.97152295191003
C           -3.72106738579392        1.03611344434988        1.28584976188205
C           -4.54354988967690        0.79057836156253        2.37944014539518
C           -4.77718207670381        1.77868160680096        3.31821085123605
C           -4.19614195146844        3.02715765665413        3.17472896759838
C           -3.38335545774599        3.28121335930098        2.08402551790758
C           -3.15059652866231        2.29388010155044        1.14281798348002
C           -4.64686132209310        0.09694583740727       -0.78552660502715
C           -6.00766055541640        0.02912216038971       -0.57810981161021
C           -6.85593385011269        0.18855438046534       -1.66577018382265
C           -6.34854212208331        0.41486691898555       -2.93616567071330
C           -4.98195489125395        0.48956779355028       -3.15042947977868
C           -4.13130075113285        0.33157221970299       -2.06877473891291
C            1.94567192550607       -0.96615001577267       -0.37582933013766
C            1.14258854446362       -2.12477158361451       -0.20319463023353
C            1.66252536420974       -3.27735732534223        0.29975651213738
C            3.02728091399025       -3.35268031181906        0.64038492443850
C            3.83728457535903       -2.27289111637333        0.46846038805466
C            3.33160915280919       -1.04411111752442       -0.03220327419125
C            6.00627361360919       -0.09811625428681        1.44321209341464
C            7.34651050494710       -0.17081950882898        1.76278124379520
H            8.64505783661728       -0.07826954555717       -1.37105919573957
H            6.24062603960938        0.05619824773574       -1.92601948692175
H            5.48818746689524        2.37194176911641       -0.63361652891809
H            4.54567733496426        4.45913658985813       -1.49622184766630
H            2.14605324664146        4.60667472013751       -2.05365589121811
H            0.68804846830535        2.65952293924583       -1.76491423781906
H            0.39035249349321        0.57790567422146       -3.34860241608316
H           -1.99006181690822        0.65254088695844       -4.00027756335040
H           -0.68763523479919        0.02465242468712        0.74906594117505
H           -4.48242987658003       -2.39459687609943       -0.75142737072478
H           -4.12529894571458       -4.65354469728821        0.13594230321352
H           -2.80926110923333       -4.98549208033321        2.19871285322889
H           -1.85761572982262       -3.02895651774191        3.36783375285943
H           -2.23254106171400       -0.76782845021521        2.49404802643153
H           -4.99454218504782       -0.18379733296999        2.50233018141909
H           -5.41613222518172        1.57295637948152        4.16475424346742
H           -4.37782257456480        3.79832126773173        3.90867986107332
H           -2.92853784129839        4.25353679837910        1.96236220136883
H           -2.51941308180101        2.50320583800879        0.29133278738829
H           -6.40999440366810       -0.14577026286504        0.40855677400008
H           -7.92478929834859        0.13600673205664       -1.51964448211655
H           -7.02777389067201        0.53593330191329       -3.76742022793421
H           -4.58861468376049        0.66872762838951       -4.14007741420907
H            0.10087263596438       -2.08289288948024       -0.48352600109083
H            1.03346554822329       -4.14557261610287        0.42950564574188
H            3.42750622001931       -4.27866264347336        1.02633810204562
H            4.88818471786302       -2.34101972632640        0.70818093254408
H            5.26227700642276       -0.09942018378308        2.22650262097535
H            7.66409220308753       -0.23250379327376        2.79340174662236
