92
 energy: -142.529173827896 gnorm: 0.000052965320 xtb: 6.7.1 (edcfbbe)
C            4.75188884242694       -0.01497109428391       -2.42654611061109
C            5.57068004614420        0.68676723375294       -1.32330291945930
C            6.73088516402090        1.42472031776866       -1.99171375646767
C            4.65982318130676        1.61999427692283       -0.54290007110916
C            4.69013853082360        3.00326668886012       -0.63372493669567
C            3.84096193371223        3.78519889195803        0.13148851265244
C            2.96591356397946        3.19499894732966        1.02578816967548
C            2.92770490890721        1.81787908249572        1.14072763861279
C            3.74600024956140        1.03175163891938        0.33799064079405
N            3.76762705033204       -0.37398537340192        0.46719100364967
C            2.65446376214965       -1.17521131969871        0.34974000129086
C            2.76752480914075       -2.57802744561313        0.33660314518786
C            1.64751715745824       -3.35877720933802        0.23711028236325
C            0.36731057390880       -2.80041714091998        0.13466108177526
C            0.23608946612958       -1.39757783121100        0.06428514132955
C            1.38687408864793       -0.62144201281101        0.15615680330398
C           -1.08965093698100       -0.80557289899003       -0.09314201935703
C           -1.28013512218036        0.56753125512318       -0.20703493421571
C           -2.54417740889362        1.14266265213061       -0.35904220178828
N           -2.68676728433424        2.50680171673477       -0.48201203930606
C           -3.93388456597217        3.16858578944825       -0.45935939476665
C           -4.93564799264955        2.84953118830807       -1.36790963604666
C           -6.13171533693540        3.54312311847776       -1.34734025982224
C           -6.31441259703300        4.57195700198686       -0.44039366043168
C           -5.29526822151731        4.92366048332340        0.42932300495310
C           -4.09229856653232        4.23450231178423        0.43282769457636
C           -2.91373880222684        4.56729410286535        1.33262692582497
C           -3.06362351614648        5.92771549497531        2.01396126236008
C           -2.79598088224099        3.49261194370714        2.43325136208322
C           -1.68798008263196        4.49597654022317        0.43753342921236
C           -0.66474268067150        5.43177534376710        0.42982581154775
C            0.41335658083847        5.29966819828137       -0.42941189162985
C            0.47298890366990        4.23933685470945       -1.31616068686041
C           -0.54353185203550        3.30276841209482       -1.33474685653204
C           -1.60542297254813        3.41379203136031       -0.44463847407960
C           -3.66442690800449        0.29360385523944       -0.29431937297164
C           -3.49719320536291       -1.06113008551041       -0.18804196214289
C           -2.22522663318296       -1.64225768339208       -0.11690530114397
C           -2.09159428734692       -3.07046341051671       -0.03764957153954
N           -3.17656097504495       -3.82336305062303       -0.07645012382356
C           -3.01663218351927       -5.15510756048999       -0.00876276915379
C           -4.12624008240197       -6.02613626424496       -0.04288776403329
F           -5.37227603649722       -5.49700954824376       -0.14114444538444
C           -3.98295800045831       -7.38370540066804        0.02099845398812
C           -2.69880355255432       -7.94220662941370        0.12328259182614
C           -1.58879302875958       -7.14506657523227        0.16142028707566
C           -1.72086057634676       -5.74300395337499        0.09703521005888
N           -0.62563440300550       -4.96554656826561        0.14007509685654
C           -0.78653394540367       -3.65544602933952        0.07705666558559
C            5.08376261647874       -0.87649317561313        0.55258456757157
C            5.44350926178717       -1.78082061163931        1.54432157852711
C            6.75149084539558       -2.21964089630181        1.63462752655886
C            7.70173832344440       -1.73416416054454        0.75354455343989
C            7.35120196253997       -0.79630825920090       -0.20381128701445
C            6.04321052893305       -0.35124711285707       -0.31904686983808
H            5.38511727876230       -0.71765559391460       -2.96432789690408
H            3.90667862494933       -0.56234367887629       -2.01833914235237
H            4.37306935326067        0.72327090312010       -3.13041426097941
H            7.35159377558127        0.72309142065572       -2.54309685435359
H            6.35040687457769        2.14993360889949       -2.70654859690836
H            7.34394401183856        1.93874209816244       -1.25480093046666
H            5.37970106139595        3.48919818929454       -1.30446444633414
H            3.87731248130411        4.86006456212345        0.03964323208497
H            2.32198206144800        3.80270994076000        1.64298861879939
H            2.28043541374043        1.34919627105767        1.86718326045934
H            3.73748287793798       -3.04577602885059        0.38192281240035
H            1.72704001960869       -4.43463307703367        0.23524596052367
H            1.31082308164149        0.44726093776272        0.06157278002022
H           -0.42965571598851        1.22450019425159       -0.15761211541074
H           -4.76900483596652        2.07222723784853       -2.09864937747246
H           -6.91242383676162        3.28702832948205       -2.04809723407807
H           -7.24708945103039        5.11578551211938       -0.41941458967472
H           -5.45407792753128        5.74554048131861        1.10808504308594
H           -3.94388790953357        5.93087977903767        2.65169819356314
H           -2.20403678065993        6.12397159774021        2.64975190468857
H           -3.15338597322947        6.72538378697054        1.27991178486796
H           -1.93023687013695        3.69987842848270        3.05903155240655
H           -2.68465896319061        2.49536390011451        2.01640157099294
H           -3.68796520109400        3.50349456461981        3.05624440756596
H           -0.69646334769044        6.27779939180978        1.09677786044214
H            1.20143228996922        6.03711984988602       -0.41465406977170
H            1.30086015446068        4.14620226579345       -2.00244445174097
H           -0.52867749511945        2.49417591001205       -2.05057395096626
H           -4.66076797254670        0.70393385078809       -0.30466118668340
H           -4.35263682249943       -1.71796879580122       -0.15120129963530
H           -4.85869453757092       -8.01312699780298       -0.00835482811275
H           -2.60137959265666       -9.01562375988070        0.17263962409276
H           -0.59512946882455       -7.55734661436872        0.24102293642711
H            4.70126266991582       -2.12311642480815        2.25017293170543
H            7.02805765091587       -2.92837364999375        2.40097374762984
H            8.72465801086595       -2.07368001826946        0.82019074233309
H            8.11564427377109       -0.41674852265752       -0.86188440822554
