  92
       -142.47609776
 C          4.7894010481       -0.1056731559       -2.3898198659
 C          5.5747148804        0.6544659031       -1.3021250362
 C          6.7450124915        1.3717769548       -1.9732490077
 C          4.6339623360        1.6115349957       -0.5922775032
 C          4.6494634133        2.9882937805       -0.7503924548
 C          3.7642213520        3.7940543807       -0.0543513180
 C          2.8710867767        3.2348796054        0.8417537472
 C          2.8503866538        1.8656639485        1.0257318992
 C          3.7020240776        1.0509623741        0.2877955982
 N          3.7318940304       -0.3434058396        0.4816235888
 C          2.6206833723       -1.1565677733        0.3701369697
 C          2.7404418016       -2.5570637575        0.3973149717
 C          1.6252784661       -3.3458590613        0.2877533413
 C          0.3472964884       -2.7948275989        0.1467303335
 C          0.2117236776       -1.3955290390        0.0525889954
 C          1.3585717982       -0.6123179220        0.1397863532
 C         -1.1118896493       -0.8075254930       -0.1194105236
 C         -1.3025517489        0.5668950641       -0.2225962914
 C         -2.5646261470        1.1391173243       -0.3789818734
 N         -2.6976406890        2.5109843790       -0.4835132664
 C         -3.9307348413        3.1867538779       -0.4040780227
 C         -4.9762143525        2.8871388645       -1.2694318439
 C         -6.1625924251        3.5922786044       -1.1895558765
 C         -6.2940674672        4.6168927321       -0.2696128577
 C         -5.2324532396        4.9528412732        0.5540233218
 C         -4.0401727134        4.2493728240        0.4999681847
 C         -2.8213670379        4.5595488859        1.3505159030
 C         -2.9230424369        5.9134665911        2.0510156240
 C         -2.6734194212        3.4698356397        2.4317534806
 C         -1.6348951889        4.4792508015        0.4070947534
 C         -0.5998398135        5.3998237778        0.3626718384
 C          0.4495387224        5.2464349303       -0.5277014944
 C          0.4689212350        4.1761995635       -1.4044873309
 C         -0.5626147307        3.2575845660       -1.3885223884
 C         -1.6014687509        3.3937944615       -0.4741312636
 C         -3.6840268245        0.2912977288       -0.3307694728
 C         -3.5159728586       -1.0654404956       -0.2340835076
 C         -2.2451302090       -1.6437298893       -0.1562967330
 C         -2.1076683193       -3.0743066810       -0.0781491335
 N         -3.1877388791       -3.8287476548       -0.1432603701
 C         -3.0269340892       -5.1577932299       -0.0756336895
 C         -4.1356579611       -6.0308984792       -0.1408382176
 F         -5.3738465483       -5.5066388343       -0.2681267908
 C         -3.9863338887       -7.3876930037       -0.0790922823
 C         -2.7029652209       -7.9428950051        0.0530704557
 C         -1.5963809409       -7.1445499062        0.1223421208
 C         -1.7313632151       -5.7423180817        0.0611189616
 N         -0.6412344387       -4.9628128289        0.1334559792
 C         -0.8051151856       -3.6547234522        0.0677412697
 C          5.0434902213       -0.8366289352        0.6157310654
 C          5.3793172081       -1.7108518616        1.6424834212
 C          6.6866969957       -2.1346016546        1.7873637876
 C          7.6621735984       -1.6638952267        0.9265143466
 C          7.3346129996       -0.7599573079       -0.0706013469
 C          6.0271617209       -0.3344975539       -0.2425055434
 H          5.4406699251       -0.8286952289       -2.8766314717
 H          3.9388955977       -0.6365490379       -1.9739224310
 H          4.4244909669        0.5947296699       -3.1383969226
 H          7.3879681865        0.6516958683       -2.4725695580
 H          6.3788473239        2.0585729333       -2.7320975383
 H          7.3318974856        1.9268329818       -1.2450573271
 H          5.3518847530        3.4505836851       -1.4245901950
 H          3.7866649945        4.8631124410       -0.2006864251
 H          2.1988663165        3.8626481614        1.4065188372
 H          2.1901231021        1.4255848076        1.7575404919
 H          3.7114584631       -3.0173873045        0.4769314289
 H          1.7089544305       -4.4206968222        0.3090555914
 H          1.2802011703        0.4515065295        0.0089178889
 H         -0.4548085594        1.2250685386       -0.1555010562
 H         -4.8496680550        2.1178317733       -2.0155771696
 H         -6.9755266868        3.3514423296       -1.8577734929
 H         -7.2184562604        5.1702957426       -0.2031028573
 H         -5.3497161943        5.7737651572        1.2426085364
 H         -3.7746338040        5.9227187337        2.7264937159
 H         -2.0336325278        6.0920511373        2.6502167048
 H         -3.0333553412        6.7193218904        1.3292505458
 H         -1.7778867830        3.6550288118        3.0213341818
 H         -2.5969976515        2.4794558793        1.9942791982
 H         -3.5367177668        3.4861274185        3.0938886200
 H         -0.5990631722        6.2506115101        1.0245314425
 H          1.2482762403        5.9722327179       -0.5423754510
 H          1.2801178393        4.0615040506       -2.1074297583
 H         -0.5786649186        2.4413105805       -2.0950026054
 H         -4.6797587215        0.7009819982       -0.3411565551
 H         -4.3695098861       -1.7239142954       -0.2091061962
 H         -4.8571067787       -8.0222433408       -0.1343447945
 H         -2.6044288775       -9.0166386557        0.0974906981
 H         -0.6039990638       -7.5542614289        0.2241988937
 H          4.6179478263       -2.0392015471        2.3337060796
 H          6.9440888632       -2.8185411226        2.5818663807
 H          8.6850447691       -1.9900557248        1.0373041242
 H          8.1164671260       -0.3933465712       -0.7155669682
