92
 energy: -142.484075957677 gnorm: 0.000045341375 xtb: 6.7.1 (edcfbbe)
C            6.24267625076765        2.83426912462427        0.02561312704393
C            6.23824495082300        1.30931807579817       -0.19636709125796
C            7.67367318318949        0.80238751473540       -0.43532769561403
C            5.68671756486066        0.64125979089932        1.04730503037036
C            6.33142828114387        0.81578571185706        2.26450847314680
C            5.86662155814305        0.23569091650975        3.43081927444533
C            4.71981172525116       -0.54080040480924        3.39485720174822
C            4.05788693838248       -0.73048215023336        2.20153048730785
C            4.53151081728780       -0.15228973246605        1.01686620640362
N            3.84708951631201       -0.36423777698426       -0.16509151188068
C            2.68699027840840       -1.19218893991015       -0.15030794425186
C            2.82852791559649       -2.58568006538088       -0.22204744736617
C            1.70865470542586       -3.37210234875186       -0.20198848939307
C            0.42428495502501       -2.80769310176963       -0.11723644937960
C            0.27380702752205       -1.39979363614282       -0.05210153684125
C            1.43817104497995       -0.61781312098425       -0.06610660940201
C           -1.04849387959797       -0.83137014729554        0.02544502536054
C           -1.28252463394662        0.55102417837681        0.06958242286158
C           -2.56019113901540        1.05956758588792        0.14317410033498
N           -2.76305541851186        2.47025365425161        0.18216904796676
C           -3.03591400015355        3.13722265641593       -0.99728244932146
C           -3.04119637287406        2.42808869504284       -2.20518636202807
C           -3.31363936849010        3.06341107372824       -3.39697079512322
C           -3.58252082232959        4.42248007617125       -3.40753675132427
C           -3.57007005888603        5.12696725833633       -2.21744985207996
C           -3.29912919954763        4.51409323085517       -1.00146045743702
C           -3.29558729336198        5.33895603887688        0.27007666449675
C           -2.22842950166071        6.44293412650294        0.13854111823377
C           -4.69019815806836        5.96802450095854        0.45434383960979
C           -2.97894139580332        4.49685271245837        1.49005766249467
C           -2.93475216193207        5.09258211870854        2.74341682986091
C           -2.65896668618387        4.37024846755271        3.89011628586283
C           -2.42192949090948        3.00846119866610        3.79622881175788
C           -2.45978801761543        2.38963785130795        2.56583921923347
C           -2.73409621231176        3.11926928160782        1.40210523110687
C           -3.66961295487273        0.20212279040197        0.17731187339349
C           -3.46944529209171       -1.15097992041133        0.13128176188210
C           -2.17451592545455       -1.69161318005380        0.05376080397407
C           -2.01634167917936       -3.11141622369459       -0.00224572875796
N           -3.08405552662978       -3.90545478095236        0.02675499492690
C           -2.93465188774628       -5.23433819439301       -0.03526071917900
C           -4.01563887180172       -6.11775253661652       -0.01245374313017
F           -5.27849548955925       -5.60307689780986        0.07508583417150
C           -3.86247883241240       -7.48944783909157       -0.07711182310104
C           -2.58537667461164       -8.02356467256742       -0.16750090082486
C           -1.47725957479390       -7.19685061929923       -0.19469333063273
C           -1.61727765779241       -5.80904774053105       -0.13061816879129
N           -0.55623822834124       -4.99275298176127       -0.15678346160365
C           -0.71494306374896       -3.67239243353973       -0.09443018703235
C            4.26651401744117        0.18118719263507       -1.36390159358037
C            3.54823076250264       -0.09035272370887       -2.53539699461516
C            3.93752733550783        0.44498300890423       -3.74378065788224
C            5.05465882374839        1.26191206507124       -3.80779528997915
C            5.77165573583934        1.52392067514767       -2.65455870260923
C            5.40459884575108        0.99761361409765       -1.42329894092064
H            6.63918034044648        3.35014120518740       -0.84406808097469
H            5.22796013825672        3.18664736176705        0.20222335599971
H            6.85206364594789        3.09741229105092        0.88531168018823
H            8.30773596375248        1.01976122274777        0.41925928283814
H            7.66571854470980       -0.27480892278870       -0.59260323844984
H            8.10952282458562        1.27382863984645       -1.31133593785502
H            7.22274801580642        1.42222083235596        2.31084422441294
H            6.39359296219593        0.39065388828001        4.36004545550157
H            4.33867156494390       -0.99770217392656        4.29592095362601
H            3.16271450509234       -1.33221784583986        2.17811756490058
H            3.81505549420870       -3.01829613382441       -0.28933680207862
H            1.77777280780852       -4.44777785379113       -0.25223350475687
H            1.37821602585663        0.45751452969012       -0.01214673550554
H           -0.46055587870218        1.24857700455064        0.04462275990260
H           -2.83040075527121        1.36998725002704       -2.20055198978808
H           -3.31511649400970        2.49712051623100       -4.31636175437925
H           -3.79913684034270        4.93018912431963       -4.33514353590330
H           -3.77858516999968        6.18533546445948       -2.24335462467271
H           -2.43903912371526        7.08325652637672       -0.71305786774780
H           -2.20046856875739        7.06131467455143        1.03096286203767
H           -1.24598764642139        5.99562404308053       -0.00169256310763
H           -4.72113098253419        6.58418649315682        1.34824699406573
H           -5.44106333459163        5.18547645439951        0.54969861841723
H           -4.94919715697603        6.59010413927862       -0.39748021481168
H           -3.12180014959309        6.15138534971609        2.83438340667819
H           -2.63261776756405        4.86565236635540        4.84879750596753
H           -2.20863638215048        2.42679560117698        4.68062656861918
H           -2.27961780181448        1.32811839793877        2.49645957629861
H           -4.66369334125263        0.61835741685566        0.23663599786424
H           -4.29854519505688       -1.84186573581306        0.15252028275630
H           -4.73868502840525       -8.11774339047405       -0.05518292436160
H           -2.45828852193334       -9.09359482174231       -0.21785736914620
H           -0.48095500798802       -7.60448124755395       -0.26503958145704
H            2.68053900649224       -0.73000062646166       -2.49033236887621
H            3.36906741532916        0.22287253079290       -4.63457885900999
H            5.36833524520284        1.68769632859872       -4.74880179363019
H            6.64267176527379        2.15718581314847       -2.72260008190509
