92
 energy: -142.476061821782 gnorm: 0.000181252151 xtb: 6.7.1 (edcfbbe)
C            4.77889057826056        0.01610437300800       -2.44181752902816
C            5.59941772987552        0.69602721311941       -1.32603016756313
C            6.76496305121143        1.43841250845991       -1.98028595832421
C            4.69111297463484        1.62155769589137       -0.53451253966332
C            4.72198334890416        3.00548280713996       -0.61071558044228
C            3.87174614346354        3.78007959860758        0.16111008228726
C            2.99459013303928        3.18081029694827        1.04778019080073
C            2.95368409508463        1.80288192901579        1.14687765604365
C            3.77297840910695        1.02382674712382        0.33673546091355
N            3.78971353816402       -0.38130533704672        0.44737359712947
C            2.66463243009073       -1.17486338466969        0.33984021641990
C            2.76918008024949       -2.58335277517632        0.32357736041494
C            1.64825406750142       -3.35650590214206        0.22991290711211
C            0.36361323664327       -2.79056695450214        0.13360917909962
C            0.24305572254472       -1.38085822985389        0.06689663041191
C            1.40528933794681       -0.61249006639628        0.15309145180047
C           -1.07025081934252       -0.79336271374993       -0.08178421273083
C           -1.27256578951175        0.58352832245392       -0.18790877719953
C           -2.53592899539449        1.14733439575016       -0.34221483592170
N           -2.69162376982919        2.51486215059932       -0.45899877916652
C           -3.94319175232489        3.16298239645039       -0.45817633254002
C           -4.93391413215825        2.82008642937590       -1.37155254002980
C           -6.13615631126768        3.50248698934459       -1.37326688142791
C           -6.33816419609203        4.54246616537343       -0.48288058462904
C           -5.33127335495317        4.91679822478776        0.39198814770306
C           -4.12099835365170        4.24154501967604        0.41647961207891
C           -2.95674295050585        4.59625019349782        1.32587075558930
C           -3.12487797400092        5.96570300555674        1.98472354631579
C           -2.84724629930757        3.53828935264587        2.44367573431831
C           -1.71834991880456        4.52014275745824        0.44946352800326
C           -0.69627767891519        5.45690207410201        0.45027637938953
C            0.39568475077024        5.31970867665633       -0.39079348043687
C            0.46961636417792        4.25344591610711       -1.26979408993850
C           -0.54354566102607        3.31386688763762       -1.29527915860008
C           -1.61854258090611        3.42804887177632       -0.42005686669954
C           -3.65572362108188        0.28895395156547       -0.28012504077148
C           -3.48398367617065       -1.06137812282945       -0.17697625381952
C           -2.20413850019377       -1.64182927087666       -0.10904456366844
C           -2.07360676292674       -3.05626922305510       -0.03418079142576
N           -3.14571848287006       -3.84598142715922       -0.06840915036168
C           -3.02769851677158       -5.17149059140660       -0.00018985357896
C           -4.11916825833294       -6.04054281738978       -0.03137173668050
F           -5.37381831579999       -5.50503719333404       -0.13235922454736
C           -3.98864456149470       -7.41542826071067        0.03747988945069
C           -2.72160841818456       -7.96835728784567        0.13988648508174
C           -1.60055715997332       -7.15758533938023        0.17501620633834
C           -1.71466284500818       -5.76828736294470        0.10720052892751
N           -0.65304840464187       -4.96305166071603        0.13708267325738
C           -0.77835929734171       -3.63809292118375        0.07620626686919
C            5.10001780025656       -0.89287356171612        0.52592300068476
C            5.45451568999137       -1.81576040805195        1.50359967647891
C            6.75889983674939       -2.26596569289459        1.58518217304945
C            7.71184112335848       -1.77533170342532        0.70956653062189
C            7.36765475592129       -0.81936296730686       -0.23237957159016
C            6.06408265659208       -0.36013527966667       -0.33776547501382
H            5.40954366948958       -0.68042039692079       -2.99036240300888
H            3.93073788026241       -0.53392273046450       -2.04325609499587
H            4.40441003438725        0.76762497551818       -3.13372860763198
H            7.38333698977835        0.74251127978652       -2.54133847958579
H            6.38978682345526        2.17642836200265       -2.68461287401063
H            7.37876440582605        1.93775162612875       -1.23399953064863
H            5.41323706966823        3.49772363330704       -1.27493666737025
H            3.90941815946786        4.85577466688630        0.08113855519583
H            2.35101922360168        3.78231578744336        1.67130160608382
H            2.30651468410384        1.32704830913868        1.86851555294931
H            3.73682953039837       -3.05669619214236        0.35693758775925
H            1.72259878640823       -4.43329063097077        0.22171429492316
H            1.33215462819523        0.45638038027709        0.05776007965743
H           -0.42395990039907        1.24217660329106       -0.12999790512252
H           -4.75151391401537        2.03557789244139       -2.09070393526793
H           -6.90665540922647        3.22924807272026       -2.07868819662422
H           -7.27617238091683        5.07725810129387       -0.47921829590458
H           -5.50583747876173        5.74566786342008        1.05817115994558
H           -4.01443873890378        5.97296976353764        2.60921517640907
H           -2.27625684446654        6.17666146351440        2.63038267917538
H           -3.20846538452362        6.75159472289282        1.23742175899868
H           -1.99244539031465        3.76088986806860        3.07898180088111
H           -2.72266228591162        2.53619370411489        2.04234364402768
H           -3.74837047363119        3.55146026906431        3.05323728759317
H           -0.74036271599912        6.30845264302788        1.10925620253686
H            1.18216509317565        6.05857553514321       -0.36947650397299
H            1.30660579012641        4.15780616045987       -1.94443635529005
H           -0.51836920883349        2.50218104833485       -2.00706336353764
H           -4.65391536947937        0.69473064856030       -0.28634489364193
H           -4.33710791167169       -1.72208303393062       -0.13798826711491
H           -4.87491820167287       -8.02899426670185        0.00921779976962
H           -2.61008567730641       -9.03985275248692        0.19382370898086
H           -0.61174117681878       -7.58095975646059        0.25688000667560
H            4.71187276636888       -2.15981496712419        2.20802469970100
H            7.03085830176200       -2.98782595426392        2.34070578177442
H            8.73181136826488       -2.12460655768704        0.76899271934449
H            8.13409024907945       -0.43646117367996       -0.88603831123879
