92
 energy: -142.527971853936 gnorm: 0.000057702262 xtb: 6.7.1 (edcfbbe)
C            6.72791791850911        3.04670271770283        0.00030543997175
C            5.18845955227806        3.00422369562918       -0.00020788636260
C            4.61770933554594        4.43503467808938       -0.00076114338041
C            4.72066257361679        2.29448014490940       -1.25766534027225
C            5.07007780709447        2.80293354005422       -2.50144958898295
C            4.67153890608323        2.20064448356447       -3.68111511723619
C            3.89662069846968        1.05601864123830       -3.62801025158244
C            3.53530551141338        0.52851561854132       -2.40572278241217
C            3.94026888940355        1.13427370716322       -1.21260036579926
N            3.55919332590390        0.57997867651258       -0.00014739658058
C            2.83691594865988       -0.64578504914863       -0.00007460545490
C            3.53093230453490       -1.85693073054044       -0.00004470004684
C            2.82527934080225       -3.03604643680680        0.00022563228142
C            1.42661790088181       -3.03448901436218        0.00043155047406
C            0.71419655246705       -1.81802716843418        0.00022782632257
C            1.45394990064057       -0.63104608032568        0.00002322815020
C           -0.74298312210672       -1.82770611476603        0.00024504417769
C           -1.49889324359031       -0.65136492716076       -0.00021338024649
C           -2.88162565348855       -0.68468421066311       -0.00015209909905
N           -3.61477913307245        0.53455324807321       -0.00056214110990
C           -3.97859242108971        1.10040668513529        1.21168191399372
C           -3.59840713843559        0.47919060621706        2.40495643683697
C           -3.94307659117788        1.01809192234348        3.62705404751314
C           -4.67400991002407        2.19129217498735        3.67988697055482
C           -5.04950041803982        2.80783742147336        2.50004659165323
C           -4.71751254419176        2.28751051511393        1.25640479512205
C           -5.15753704830307        3.01445138309452       -0.00134087920262
C           -6.69417175267900        3.11785687059201       -0.00164803126411
C           -4.53064868045861        4.42166008304848       -0.00148447447906
C           -4.71698422190900        2.28704270549603       -1.25863695135648
C           -5.04848258015477        2.80689172946824       -2.50260774148671
C           -4.67262196412986        2.18983622579167       -3.68206374390917
C           -3.94185205384650        1.01656858222718       -3.62849076395050
C           -3.59765916577323        0.47813655870887       -2.40605254136143
C           -3.97814951702224        1.09990915408820       -1.21316586030562
C           -3.55970148209911       -1.90486922672913        0.00035775330833
C           -2.83801254913219       -3.07450376638618        0.00078352013901
C           -1.43936732719366       -3.05350534366985        0.00072853018933
C           -0.71195340748915       -4.30245779078828        0.00119175999924
N           -1.38666563887335       -5.43647973830009        0.00183547637530
C           -0.69191391280752       -6.58150463718756        0.00227555965654
C           -1.34608243221387       -7.83507170800652        0.00299081606528
F           -2.69749763022550       -7.86336357642539        0.00320997591691
C           -0.64786514781516       -9.00835851006731        0.00345380835077
C            0.75852223309877       -8.98484250391755        0.00321203623471
C            1.44252136098754       -7.80257812376829        0.00252138830742
C            0.73704377710914       -6.58012513587755        0.00203899764851
N            1.40745009662626       -5.41933159985590        0.00138742886515
C            0.71724881450371       -4.29466100999834        0.00097972398759
C            3.93962899113200        1.13475829971978        1.21228712256745
C            3.53420379775536        0.52937855377976        2.40544631913233
C            3.89477924784071        1.05745236791552        3.62770612246336
C            4.66939869628943        2.20228267709491        3.68075252155817
C            5.06849047972955        2.80413260882432        2.50104927638692
C            4.71986410024566        2.29507543363149        1.25729002674175
H            7.10185979731594        3.56233383699725       -0.87976385191394
H            7.10124051782005        3.56288305493113        0.88031670554992
H            7.12754585209622        2.03393137991811        0.00076306046015
H            3.52939935883652        4.40067104608948       -0.00121609134509
H            4.94320784527163        4.98204939984086        0.87976027542200
H            4.94395752155477        4.98166166086697       -0.88124683506867
H            5.67247077885047        3.69692895801897       -2.55884256689098
H            4.96321723105635        2.62304639350591       -4.63102252780723
H            3.57217012057918        0.57002580094539       -4.53661537771303
H            2.93241507265013       -0.36620626699386       -2.37153052714770
H            4.61027693595023       -1.85316966196738       -0.00017650051820
H            3.32898272478555       -3.98957948074006        0.00036186304028
H            0.96292345406192        0.32856782390666       -0.00002612243106
H           -1.02154570327932        0.31514350708608       -0.00062894121386
H           -3.02883971433095       -0.43710024659300        2.37098149943464
H           -3.63875073584001        0.51926043262690        4.53565746805359
H           -4.95076173626637        2.62379942539710        4.62970075405179
H           -5.61829664159411        3.72357213946905        2.55712432507480
H           -7.04722518368867        3.64855576999717        0.87808121548680
H           -7.04684087322914        3.64807965138242       -0.88180621757484
H           -7.13380242133335        2.12178843233787       -0.00148401068996
H           -4.83434783243547        4.98070011471855       -0.88228008351696
H           -3.44454463211391        4.34450622785251       -0.00120354761051
H           -4.83477346283292        4.98103879108909        0.87894490552309
H           -5.61720316877060        3.72263648441949       -2.56026198789228
H           -4.94898231814207        2.62199331025830       -4.63214978902134
H           -3.63727339857592        0.51732648516984       -4.53678345046119
H           -3.02821389286794       -0.43820789844411       -2.37150158170105
H           -4.63897894059925       -1.91627243014026        0.00036834026537
H           -3.32960312285739       -4.03477293210155        0.00109652223126
H           -1.18266918368878       -9.94519455110722        0.00399496645778
H            1.29164844614426       -9.92268203220365        0.00359586754810
H            2.52030487455353       -7.76629125566582        0.00233509834042
H            2.93155575290537       -0.36550968525294        2.37131512028783
H            3.57001043274449        0.57172542805539        4.53634008546462
H            4.96048093627598        2.62514040237145        4.63064007833688
H            5.67073693469927        3.69823017689602        2.55839000441672
