  94
       -142.76921309
 O         -3.9855100858        3.1723427994        1.4901472793
 C         -2.6859683639        2.8239805988        1.2761523007
 C         -1.6507462116        3.7323149982        1.4475492842
 C         -0.3363557836        3.3496358385        1.2639434765
 C         -0.0186417885        2.0377301259        0.9203503818
 C          1.3751569253        1.6178515943        0.7279424105
 C          1.8027739665        0.3573120990        1.1437090144
 C          3.1023719103       -0.0524648127        0.9347206097
 C          4.0197742841        0.7840744907        0.3005625947
 C          5.4053837778        0.3518842353        0.0590779210
 C          5.6959489547       -0.8614359617       -0.4608333990
 C          7.0701563854       -1.3824109872       -0.5423162997
 C          7.9385011047       -1.3006497775        0.5443848638
 C          9.2176810936       -1.8159190858        0.4588617417
 C          9.6507872295       -2.4199825907       -0.7101557500
 C          8.7913788519       -2.5169328311       -1.7919482191
 C          7.5087699718       -2.0095355370       -1.7071867590
 C          4.6543621965       -1.7583110390       -0.9901307917
 C          3.6605714758       -1.2812492449       -1.8427985007
 C          2.6968005928       -2.1352841895       -2.3429954104
 C          2.7102725197       -3.4784149640       -2.0038297336
 C          3.7032620613       -3.9656392672       -1.1706250179
 C          4.6723702828       -3.1149279805       -0.6729045049
 C          6.4422658084        1.3349628721        0.4125238395
 C          7.5011808774        1.6092089832       -0.4508450719
 C          8.4546112344        2.5505459975       -0.1133811326
 C          8.3666332080        3.2339571136        1.0884343911
 C          7.3105138359        2.9787149131        1.9473259590
 C          6.3514143336        2.0426791310        1.6097833638
 C          3.6035691179        2.0571596120       -0.0836080931
 C          2.3008832919        2.4638643037        0.1200050240
 C         -1.0596089473        1.1304383109        0.7511536988
 C         -2.3867315833        1.5067519827        0.9033386437
 C         -3.4333221415        0.5090554492        0.7161327093
 N         -3.4103265274       -0.6846770306        1.2473733945
 C         -4.5659378564       -1.3071579953        0.8760261669
 C         -4.8300039878       -2.6761856664        1.2915606083
 C         -4.2057784293       -3.1602061178        2.4410689361
 C         -4.4317990883       -4.4530612282        2.8704315811
 C         -5.2801842720       -5.2848716970        2.1577403810
 C         -5.8891789537       -4.8180866231        1.0042233992
 C         -5.6649539828       -3.5257452535        0.5681539474
 C         -5.3171017466       -0.4487255209        0.0907459875
 C         -6.6103636590       -0.6124891769       -0.5609449986
 C         -6.7701347323       -0.3150289073       -1.9132458268
 C         -8.0036599454       -0.4631652670       -2.5191494967
 C         -9.0913284931       -0.9087377236       -1.7871791955
 C         -8.9392597076       -1.2120416596       -0.4435573986
 C         -7.7093583722       -1.0646215539        0.1681670343
 N         -4.5743677080        0.7072562556       -0.0132952222
 C         -4.9083878402        1.8542631098       -0.7486333414
 C         -3.9725362007        2.4076487720       -1.6157986218
 C         -4.2941843613        3.5399985450       -2.3412318071
 C         -5.5469737430        4.1163229613       -2.2156752649
 C         -6.4787565096        3.5611421267       -1.3539397917
 C         -6.1646854628        2.4351406546       -0.6168549536
 H         -4.0315234934        4.0949222870        1.7681859626
 H         -1.8831205641        4.7483848899        1.7404886459
 H          0.4511337762        4.0714330171        1.4199252254
 H          1.1107570719       -0.2980572827        1.6511042936
 H          3.4193964157       -1.0282736320        1.2720843732
 H          7.6004214923       -0.8409834438        1.4615488201
 H          9.8799116634       -1.7494092189        1.3098589812
 H         10.6523109591       -2.8190415350       -0.7758624951
 H          9.1214759016       -2.9923012727       -2.7044395621
 H          6.8384971665       -2.0843480608       -2.5521066144
 H          3.6541534213       -0.2371497616       -2.1196060383
 H          1.9319560366       -1.7521331407       -3.0028559317
 H          1.9527674652       -4.1433119781       -2.3917410799
 H          3.7225693383       -5.0134222755       -0.9077100572
 H          5.4453095450       -3.4960766403       -0.0202310694
 H          7.5668155854        1.0875411074       -1.3943819755
 H          9.2696872661        2.7544977941       -0.7925923099
 H          9.1153811358        3.9664096232        1.3521015151
 H          7.2336406721        3.5127096583        2.8835369677
 H          5.5280853499        1.8426937341        2.2812628412
 H          4.3067203700        2.7206467487       -0.5677129355
 H          1.9895177600        3.4411291178       -0.2197644506
 H         -0.8530389890        0.1088642323        0.4721809788
 H         -3.5445318548       -2.5011504964        2.9820153213
 H         -3.9470089957       -4.8157030151        3.7655083997
 H         -5.4620687857       -6.2947860312        2.4957211824
 H         -6.5399892524       -5.4679959496        0.4367894332
 H         -6.1290271054       -3.1781312551       -0.3428944927
 H         -5.9218721516        0.0211377026       -2.4925261545
 H         -8.1150295818       -0.2320887765       -3.5685863811
 H        -10.0543261318       -1.0221204210       -2.2626919190
 H         -9.7850722198       -1.5607109596        0.1309073984
 H         -7.5871953573       -1.2972156299        1.2159814402
 H         -3.0000237255        1.9484192348       -1.7172385445
 H         -3.5639965020        3.9689438604       -3.0113941430
 H         -5.7965892366        4.9970320638       -2.7882639026
 H         -7.4555849153        4.0097780471       -1.2515769364
 H         -6.8819583737        2.0081792248        0.0667829041
