94
 energy: -142.769154991259 gnorm: 0.000056873107 xtb: 6.7.1 (edcfbbe)
O           -4.03045207475510        2.03133666567011        2.83271350840721
C           -2.76528265563262        1.83365175656852        2.36731040015348
C           -1.67440474789669        2.47693239561975        2.93547786838936
C           -0.39178463321967        2.22188057739965        2.49150394578671
C           -0.16324132967563        1.30483929643675        1.46827912012481
C            1.19964252005637        1.01423846543198        1.00471696274502
C            2.25463291175403        0.90838143279600        1.90960962467083
C            3.53285088360915        0.62392947002768        1.47724325931037
C            3.80111903727470        0.44219134486514        0.12150523225794
C            5.16346025577457        0.15784265995322       -0.35486803741821
C            5.96024982167079       -0.76039095971069        0.23645980074551
C            7.38351057575321       -0.90972221447699       -0.10940893102997
C            8.21753117709977        0.20147523233812       -0.21774167166875
C            9.55637416702530        0.04594861214332       -0.52110728363848
C           10.08479544866576       -1.21906238568511       -0.72032141606694
C            9.26718310483693       -2.33068499920617       -0.60250428412640
C            7.92900145717834       -2.17903660462183       -0.29211946101521
C            5.46699301667252       -1.68391723277625        1.27170242595016
C            4.25965371572016       -2.36218630646136        1.11468248832731
C            3.81788910665731       -3.24095692101657        2.08489081760009
C            4.57389467149409       -3.45960490853965        3.22500496933090
C            5.78202940567689       -2.80150823248701        3.38420307483201
C            6.22934749136219       -1.92570190532866        2.41302379446831
C            5.59586415472665        0.94349053612232       -1.52276748804342
C            6.23224143320189        0.33585139932050       -2.60338092175951
C            6.61560181914890        1.08209373956267       -3.70107231609440
C            6.36939275735701        2.44483784629746       -3.73955811055906
C            5.72481742772169        3.05589229389631       -2.67696845453710
C            5.33402255953435        2.31104960367614       -1.58031794598208
C            2.75213332396871        0.57399601493912       -0.78690460135206
C            1.47124998393515        0.84356440898834       -0.35142895032328
C           -1.25991753048411        0.67280870683058        0.89269171085420
C           -2.55768524086552        0.93524016021671        1.31196315135918
C           -3.65779076351613        0.22496442487442        0.67240064481382
N           -3.64040694852335       -1.05582257196000        0.40963766200910
C           -4.83910123187765       -1.36048768282644       -0.16385333185848
C           -5.12039314106657       -2.71689162319023       -0.60876660953415
C           -6.01613079075059       -2.98819815440448       -1.64130811492907
C           -6.25272475784587       -4.29250377223716       -2.03266589081693
C           -5.59649116892104       -5.34137811949940       -1.40973274625840
C           -4.68853251458809       -5.07800715671825       -0.39681954393379
C           -4.44937671654400       -3.77701105711566       -0.00008722569496
C           -5.61248177373796       -0.21449238205811       -0.24643362226014
C           -6.95631708671458        0.00576533215496       -0.76483750875884
C           -7.21627165269100        1.03163567765374       -1.67178868932023
C           -8.49805648613665        1.23248050506409       -2.14881468001522
C           -9.53469092621506        0.41555752660721       -1.72996918092533
C           -9.28326979367743       -0.61016200710577       -0.83266748351270
C           -8.00494103179058       -0.81486622424271       -0.35083243512810
N           -4.83891458599142        0.79652121082036        0.28105505693221
C           -5.18601800703734        2.15335092652831        0.36538924940751
C           -4.30042969925594        3.11770238579640       -0.10321654357277
C           -4.63645143640178        4.45643238868187       -0.02041724743442
C           -5.85523285814296        4.83781311798121        0.51493961304832
C           -6.73783842677419        3.87507585584049        0.97663457187039
C           -6.40801435753438        2.53483622832838        0.90788185587112
H           -4.00952155640393        2.64840560746927        3.57390968566727
H           -1.83834945118673        3.17974833266770        3.74262631804203
H            0.43841037677106        2.74800359868182        2.93822052448422
H            2.06465999641140        1.02962974884445        2.96607038625809
H            4.33846111250185        0.54825977906018        2.19282014704605
H            7.81166624386848        1.18861375020876       -0.05139217148153
H           10.19236975078818        0.91577798618606       -0.59973702903926
H           11.13097646874394       -1.33823117104206       -0.96093236570613
H            9.67484203600874       -3.32017963864324       -0.75139596634851
H            7.29123519304924       -3.04722740287808       -0.20171358521959
H            3.67347656175193       -2.20505729831309        0.22128132610219
H            2.88024559875527       -3.75996078929219        1.94979729813373
H            4.22541437148679       -4.14471752074393        3.98378442858758
H            6.37907566275196       -2.97278549636258        4.26837832783386
H            7.17156816224572       -1.41087996478354        2.53964902472736
H            6.41492533737617       -0.72848224395270       -2.58262943315202
H            7.10659268473385        0.59797547393573       -4.53276297065373
H            6.67350832090121        3.02708675329690       -4.59694344538288
H            5.52452573154225        4.11737785006976       -2.70406063194082
H            4.83219394586216        2.78932411727711       -0.75070598031880
H            2.94770867300547        0.44844133265879       -1.84269608899550
H            0.67211513589313        0.94310635586085       -1.07129560430227
H           -1.12155379593478       -0.05985961755165        0.11290761826904
H           -6.51803919696452       -2.17639398775457       -2.14645697980621
H           -6.95061979905015       -4.49175587304436       -2.83348757809061
H           -5.78681832886920       -6.35916447830159       -1.71826777738186
H           -4.16624097742677       -5.89239659218544        0.08473848836673
H           -3.74170743332386       -3.55462936756291        0.78347097876511
H           -6.40901585144956        1.66412542178294       -2.01297720305725
H           -8.68742765509196        2.02913898468372       -2.85349747137413
H          -10.53522849429638        0.57545485218222       -2.10370152799141
H          -10.08859707264471       -1.25087430327770       -0.50436632520907
H           -7.80491120124144       -1.61172520354724        0.35051184224752
H           -3.35469260408348        2.81413716790007       -0.52798216057699
H           -3.94491684804415        5.20308300627865       -0.38193121575263
H           -6.11640158234530        5.88388860688327        0.57306904297483
H           -7.68757598106335        4.16926595675963        1.39789692813224
H           -7.08518939490898        1.78246248890626        1.28156306436620
