  107
  -132.741061112600       0.473433035402594      !
 C         -4.6027350000       -2.2041206959        0.0895782880
 C         -3.4968712671       -3.2485976204       -0.0934668907
 C         -3.3686653568       -3.5577965544       -1.5935878810
 C         -3.9325395944       -4.5197590598        0.6500409178
 C         -2.1362978650       -2.7775081341        0.4039473595
 C         -1.1347678915       -3.6429105405        0.5926600050
 C          0.1830531649       -3.2027566441        0.9749940109
 C          0.4618621643       -1.9139685700        1.1588330965
 C         -0.5653289469       -0.8009771477        1.1049983916
 C         -0.7814414595       -0.5059952833        2.6748799801
 C         -1.7316647690        0.6342298388        3.0755313178
 C          0.5287542604       -0.3204498825        3.4652354841
 C         -1.4295757697       -1.7616752999        3.3086453981
 C          0.1415362285        0.2350539446        0.0075045815
 C         -0.7973103713        1.1480605114       -0.9786942287
 C         -0.0038501305        2.3001510321       -1.7770152409
 C          0.4739380293        3.5401493286       -0.9989715597
 C          1.2470359422        1.7862873502       -2.5029444044
 C         -0.9644051302        2.8529839258       -2.8538826206
 C         -1.3679206870        0.3405869803       -2.1231175715
 C         -2.6600126230        0.2530883124       -2.4453230678
 C         -3.6910644452        0.9343429850       -1.7075764866
 C         -3.3717995644        1.7145529712       -0.6715746473
 C         -4.4426145281        2.5071216512        0.0694954065
 C         -5.4026418310        1.5232332168        0.7557624499
 C         -5.2266856683        3.3614329953       -0.9389840791
 C         -3.8883570124        3.4547897425        1.1391607135
 C         -1.9554403778        1.7894603947       -0.1662170328
 C          1.0955091781        1.1450642289        0.7640459319
 C          0.6232005927        2.1928212895        1.5497976569
 C          1.4353806145        2.9748236641        2.3503541204
 C          2.7928230030        2.7190350190        2.3941052407
 C          3.3100405589        1.7310914828        1.5862358340
 C          2.4891553306        0.9654909202        0.7493694965
 N          3.0861771677        0.0540298393       -0.0984657615
 C          4.5021532399       -0.0751974781       -0.1025939019
 C          5.1013683852       -1.1268811807        0.5794038878
 C          6.4785872299       -1.2556089817        0.5732705089
 C          7.2599245871       -0.3372281985       -0.1082676812
 C          6.6627584482        0.7118485007       -0.7875363791
 C          5.2859336551        0.8449388646       -0.7883288632
 C          2.3345723573       -0.7484548451       -0.9387596840
 C          3.0103670465       -1.5822644131       -1.8352699047
 C          2.3308389583       -2.4842904688       -2.6212250725
 C          0.9583947526       -2.5827759951       -2.4865268454
 C          0.2907535714       -1.7273450799       -1.6327555452
 C          0.9339786895       -0.7468153806       -0.8755163525
 C         -1.9278726210       -1.2936589500        0.5554683077
 H         -5.5407367348       -2.6014845955       -0.2943633950
 H         -4.3816507313       -1.2880688118       -0.4505934601
 H         -4.7487200494       -1.9702113483        1.1422136520
 H         -2.5838738288       -4.2900256592       -1.7674269796
 H         -4.3056182695       -3.9540118324       -1.9803887953
 H         -3.1234707156       -2.6537988456       -2.1470308571
 H         -4.9509881474       -4.7831833797        0.3716204052
 H         -3.2936805809       -5.3638105279        0.4086762524
 H         -3.8991103101       -4.3599445177        1.7255902251
 H         -1.2701716388       -4.7039126487        0.4525329744
 H          0.9554907226       -3.9527009733        1.0738100536
 H          1.4584626848       -1.6135263130        1.4411761815
 H         -2.6774287629        0.5963064386        2.5393504646
 H         -1.2838731270        1.6132626979        2.9665199096
 H         -1.9729967545        0.5179565078        4.1318758934
 H          0.2893439142        0.0488532334        4.4610905210
 H          1.2127436328        0.3825259653        3.0116775456
 H          1.0406901838       -1.2713602398        3.5873466395
 H         -1.4077922064       -1.6505794874        4.3915615943
 H         -0.8909613757       -2.6685397688        3.0599756814
 H         -2.4670804331       -1.8906777825        3.0162365558
 H          1.3179148129        3.3298147994       -0.3550713637
 H         -0.3057160843        4.0114720536       -0.4086119410
 H          0.8060541209        4.2811174528       -1.7248120199
 H          1.0768210873        0.8697455014       -3.0578407184
 H          1.5744814303        2.5439625799       -3.2139320754
 H          2.0606043868        1.6204918251       -1.8055466221
 H         -1.9341587158        3.0995298311       -2.4317982291
 H         -1.1151918833        2.1454067631       -3.6630970545
 H         -0.5470032793        3.7590668838       -3.2888268561
 H         -0.6553966861       -0.0970866557       -2.8007362724
 H         -2.9585434338       -0.3052632197       -3.3224337717
 H         -4.7046733760        0.8368063660       -2.0655159940
 H         -6.1937010785        2.0646549309        1.2703038483
 H         -4.8708846952        0.9198067006        1.4884896791
 H         -5.8598016101        0.8543100444        0.0319581136
 H         -5.9755443048        3.9581070319       -0.4222827830
 H         -4.5542735914        4.0353717254       -1.4662864287
 H         -5.7344496902        2.7439560256       -1.6738147583
 H         -3.2518727384        4.2196795746        0.6994298590
 H         -3.3288784554        2.9217198720        1.9024186467
 H         -4.7174050999        3.9611894958        1.6301398202
 H         -1.7377731942        2.8433457728       -0.0133082520
 H         -1.9744938869        1.3178697884        0.8095658769
 H         -0.4164933611        2.4400965786        1.5198942851
 H          1.0046140051        3.7711794391        2.9379777157
 H          3.4472347679        3.2909901230        3.0343426243
 H          4.3723630363        1.5423675413        1.5964020538
 H          4.4815219123       -1.8384944783        1.1047832222
 H          6.9430456752       -2.0735711133        1.1036636545
 H          8.3347699840       -0.4393294394       -0.1106304396
 H          7.2706462516        1.4273028651       -1.3211927247
 H          4.8103326349        1.6586891058       -1.3161846122
 H          4.0855735697       -1.5215944450       -1.9039591989
 H          2.8706257090       -3.1178061688       -3.3090007944
 H          0.4011146883       -3.3196538502       -3.0447731081
 H         -0.7669448701       -1.8737087629       -1.5334258833
 H         -2.1117793166       -0.8532837388       -0.4196693345
 H         -2.7243630001       -0.9088296125        1.1899034154
  107
  -132.740604316800       0.291964295393849      !
 C         -3.5008952407       -3.4951539883       -1.5266681190
 C         -3.5428256761       -3.2473076205       -0.0105596476
 C         -3.9543356456       -4.5432360494        0.7029907594
 C         -4.6229816349       -2.1977998530        0.2765112129
 C         -2.1508627949       -2.8121123757        0.4289070014
 C         -1.1535377713       -3.6930122437        0.5553072480
 C          0.1844437939       -3.2733854591        0.8894997844
 C          0.4866172617       -1.9922194386        1.0905078920
 C         -0.5279561907       -0.8664950667        1.1032524536
 C         -0.6823857111       -0.6147333955        2.6874398411
 C         -1.6154221207        0.5143717330        3.1504215078
 C          0.6567526104       -0.4464648880        3.4309893394
 C         -1.3071215702       -1.8859076060        3.3126283273
 C          0.1432950158        0.2080388678        0.0180617777
 C         -0.8269144773        1.1228458912       -0.9431389070
 C         -0.0656804235        2.3067130277       -1.7264732993
 C          0.3599260453        3.5575874806       -0.9361836504
 C          1.2079102139        1.8411094837       -2.4450620895
 C         -1.0322690422        2.8357448886       -2.8098529848
 C         -1.3749552472        0.3160300589       -2.0979106858
 C         -2.6634506609        0.1926104559       -2.4200382181
 C         -3.7123614419        0.8655493123       -1.6981092358
 C         -3.4144818106        1.6519410227       -0.6610592639
 C         -4.4438830518        2.5485286469        0.0113978414
 C         -5.8787748060        2.1089607680       -0.3056057592
 C         -4.2524731406        3.9777303285       -0.5239655708
 C         -4.2954826080        2.5621187417        1.5374726080
 C         -2.0058048001        1.7163086903       -0.1192866461
 C          1.0865371853        1.1243909942        0.7777282896
 C          0.5989599247        2.1504361933        1.5814441268
 C          1.4016599488        2.9352498545        2.3890651190
 C          2.7648428194        2.7089919837        2.4140209963
 C          3.2963069660        1.7476572213        1.5832312057
 C          2.4833729459        0.9751225093        0.7451703004
 N          3.0889948748        0.0895716502       -0.1234247043
 C          4.5072836567       -0.0144572821       -0.1393562840
 C          5.1309522230       -1.0449161623        0.5528112257
 C          6.5103699676       -1.1469451617        0.5395088155
 C          7.2691470430       -0.2234761830       -0.1603842831
 C          6.6473715178        0.8037194640       -0.8508889594
 C          5.2682098749        0.9106713031       -0.8436128782
 C          2.3443732667       -0.7121010476       -0.9706009823
 C          3.0260997018       -1.5204751330       -1.8859363661
 C          2.3541565794       -2.4224109031       -2.6784832578
 C          0.9853143960       -2.5509085627       -2.5292447281
 C          0.3114509952       -1.7231488102       -1.6535580297
 C          0.9451788741       -0.7383224817       -0.8933480973
 C         -1.9115414870       -1.3341679358        0.5872877562
 H         -3.2665323524       -2.5732192222       -2.0541363340
 H         -4.4647850272       -3.8576997301       -1.8785507305
 H         -2.7413260738       -4.2336348422       -1.7717386224
 H         -3.8576307221       -4.4301939125        1.7806561728
 H         -4.9904973480       -4.7826410938        0.4723752050
 H         -3.3422937301       -5.3835381637        0.3897136082
 H         -4.6987535475       -1.9983350944        1.3439111197
 H         -4.4276065068       -1.2659528021       -0.2477530211
 H         -5.5878796742       -2.5736238339       -0.0595750140
 H         -1.3078859015       -4.7499826565        0.4051016152
 H          0.9514485804       -4.0334983631        0.9425303265
 H          1.4968386029       -1.7125440016        1.3440616820
 H         -1.8165361846        0.3753032919        4.2121718545
 H         -2.5786743041        0.4877860487        2.6492468320
 H         -1.1743923395        1.4956776094        3.0445293519
 H          1.1849751508       -1.3943308241        3.4941673674
 H          0.4531348529       -0.1213334258        4.4501806032
 H          1.3129038129        0.2847243034        2.9803225608
 H         -0.7636329412       -2.7837748250        3.0428102356
 H         -2.3472439526       -2.0207730402        3.0338670469
 H         -1.2689007313       -1.7905141487        4.3963966782
 H          0.6912224598        4.3073667146       -1.6534578271
 H          1.1915246611        3.3694509818       -0.2696680890
 H         -0.4488296488        4.0078901588       -0.3684443530
 H          1.0707671649        0.9252905404       -3.0102528570
 H          1.5164185992        2.6158177818       -3.1461713367
 H          2.0204413645        1.6957951704       -1.7422872358
 H         -1.1486340709        2.1314152416       -3.6276845061
 H         -0.6407601629        3.7596697735       -3.2311762475
 H         -2.0135045203        3.0454941949       -2.3960582821
 H         -0.6503564000       -0.0927392980       -2.7806025097
 H         -2.9452841996       -0.3669277374       -3.3019444896
 H         -4.7117700115        0.7697885094       -2.0887694830
 H         -6.1106545402        2.2425295428       -1.3587825631
 H         -6.5802249525        2.7127982658        0.2663594131
 H         -6.0310275331        1.0654236174       -0.0393021999
 H         -5.0093956367        4.6374596958       -0.1051109834
 H         -3.2753775470        4.3741734264       -0.2582961307
 H         -4.3455069323        3.9919910002       -1.6080048983
 H         -4.4466933022        1.5632519138        1.9406177672
 H         -5.0497652128        3.2152477429        1.9718239646
 H         -3.3224838520        2.9275230335        1.8515874469
 H         -1.8054143292        2.7647917374        0.0907042435
 H         -2.0331548129        1.1988424585        0.8337469637
 H         -0.4462460784        2.3758349623        1.5566109285
 H          0.9605926853        3.7131286685        2.9937185672
 H          3.4130378591        3.2854889282        3.0565190789
 H          4.3630700270        1.5856228274        1.5764594599
 H          4.5284998139       -1.7602551412        1.0931198200
 H          6.9941227543       -1.9480658450        1.0783391036
 H          8.3457731406       -0.3045100030       -0.1680971619
 H          7.2378343442        1.5232600325       -1.3983781375
 H          4.7734950109        1.7079298517       -1.3789034759
 H          4.0995170430       -1.4402834685       -1.9628054298
 H          2.8977363996       -3.0352376410       -3.3818457882
 H          0.4368892957       -3.2916387849       -3.0910339094
 H         -0.7420338262       -1.8930539328       -1.5378338142
 H         -2.1143358125       -0.8889700608       -0.3820551841
 H         -2.6828656989       -0.9419838312        1.2473992749
  107
  -132.739759343900       0.119400758649552      !
 C         -4.8913429603       -1.9292355792        3.4469889516
 C         -4.2157208012       -0.7485796645        2.7325311875
 C         -3.6842994026        0.1965957328        3.8156331236
 C         -5.2651582520        0.0097477945        1.9050173427
 C         -3.1413024615       -1.2741027433        1.7870996621
 C         -3.4276887058       -2.2168595494        0.8860958418
 C         -2.3989205009       -2.7318933967        0.0222880585
 C         -1.1417900026       -2.2882946176        0.0603801974
 C         -0.6059934103       -1.2402185398        1.0090651410
 C          0.3416002335       -2.1389403127        1.9545031494
 C          0.8499342468       -1.5370002227        3.2777170953
 C          1.6030506236       -2.6459715819        1.2425620942
 C         -0.4754367765       -3.3809769706        2.3763485354
 C          0.1706275325       -0.0371541699        0.2106684349
 C         -0.7034419283        1.1577449244       -0.5595719975
 C         -0.9921794734        2.6312004821        0.0259788148
 C         -1.8654458723        2.7536246873        1.2851818454
 C          0.2739840048        3.4809678804        0.2501281430
 C         -1.7856025709        3.4193883408       -1.0438582997
 C          0.2162235667        1.4800302138       -1.7198526865
 C         -0.1627455929        1.4985525178       -2.9954106036
 C         -1.4991654371        1.1323691050       -3.3959498737
 C         -2.4102422995        0.7248212733       -2.5074838041
 C         -3.8360862079        0.3615681851       -2.8989850029
 C         -4.2699591087       -0.9542926109       -2.2411429433
 C         -3.9895645278        0.1951020206       -4.4157156709
 C         -4.7897932555        1.4803875752       -2.4498705242
 C         -2.0610534302        0.5843651513       -1.0441477609
 C          1.1451588068        0.6339938401        1.1642529421
 C          0.7111360189        1.1881025565        2.3652002056
 C          1.5303654238        1.9090252575        3.2147136855
 C          2.8553741735        2.1052254832        2.8739414058
 C          3.3408967937        1.5208362425        1.7253559041
 C          2.5158409953        0.7637745315        0.8849531811
 N          3.0888443209        0.1345536960       -0.2020741139
 C          4.4923918966        0.2367392752       -0.4081325915
 C          5.3635359262       -0.5695162479        0.3144856032
 C          6.7273349438       -0.4671799004        0.1075071026
 C          7.2245480213        0.4344972872       -0.8189360005
 C          6.3561567758        1.2373944245       -1.5398318519
 C          4.9912026565        1.1420917694       -1.3362981912
 C          2.3307129796       -0.6171557029       -1.0825212141
 C          2.9932975384       -1.2961113364       -2.1102038319
 C          2.2956901981       -1.9703641345       -3.0855148773
 C          0.9137689654       -1.9381258614       -3.0573128579
 C          0.2638792198       -1.3025283134       -2.0180964789
 C          0.9342077883       -0.6716147920       -0.9678699978
 C         -1.7702918687       -0.6541953294        1.8538682955
 H         -5.6288302501       -1.5638519711        4.1586517517
 H         -4.1519007002       -2.5156259876        3.9885786591
 H         -5.3969284447       -2.5846620246        2.7443453997
 H         -2.9791656505       -0.3107788608        4.4700443718
 H         -3.2060863726        1.0741674390        3.3909459661
 H         -4.5154004505        0.5383695651        4.4297834266
 H         -4.8159702257        0.8743034673        1.4199662770
 H         -5.6910675788       -0.6298540418        1.1364606484
 H         -6.0715605266        0.3613886123        2.5452111489
 H         -4.4099706574       -2.6557400978        0.8028877103
 H         -2.6663482519       -3.5344899589       -0.6509800298
 H         -0.4134090754       -2.8039535032       -0.5412639018
 H          1.2952805720       -2.3423138992        3.8605369114
 H          0.0635126856       -1.1079507533        3.8912553971
 H          1.6213947105       -0.7926050992        3.1295916101
 H          2.0542056099       -3.4316631567        1.8475446903
 H          2.3354804724       -1.8537038285        1.1387310009
 H          1.4039720946       -3.0632179878        0.2611462370
 H         -1.4533953532       -3.1020864352        2.7573765145
 H          0.0515775719       -3.9170447011        3.1632897242
 H         -0.6155337469       -4.0730858608        1.5520988294
 H         -2.1817530129        3.7922562927        1.3783973386
 H         -1.3328336559        2.5098171910        2.1948075788
 H         -2.7755837390        2.1617736479        1.2181843677
 H          0.7018274206        3.7887347097       -0.7004140198
 H         -0.0032202584        4.3860939435        0.7883973092
 H          1.0390169429        2.9801535639        0.8256671295
 H         -2.8051620133        3.0661566043       -1.1479062453
 H         -1.3087230093        3.3818506638       -2.0161887151
 H         -1.8307881127        4.4638022124       -0.7390639766
 H          1.2170149155        1.7792978338       -1.4513581819
 H          0.5353427567        1.7773613561       -3.7724631919
 H         -1.7223815110        1.2170055742       -4.4464749610
 H         -5.2632675682       -1.2306601703       -2.5900683143
 H         -4.3058077456       -0.8678250345       -1.1595184664
 H         -3.5821197802       -1.7549897021       -2.5038595390
 H         -4.9965815134       -0.1478347354       -4.6452242046
 H         -3.8342156224        1.1375822598       -4.9343924689
 H         -3.2841668884       -0.5398082202       -4.7962557610
 H         -5.8017321161        1.2621278916       -2.7851280266
 H         -4.4846938256        2.4336225307       -2.8764890041
 H         -4.8109636419        1.5723274492       -1.3665370167
 H         -2.8691525700        1.0321325360       -0.4660516643
 H         -2.1044860116       -0.4746394816       -0.8083929037
 H         -0.2987218400        1.0275420649        2.6777401991
 H          1.1303784559        2.3155736172        4.1311020970
 H          3.5112426720        2.6894772320        3.5014739179
 H          4.3809169419        1.6464659531        1.4665959837
 H          4.9656829555       -1.2703302549        1.0338743149
 H          7.4032484341       -1.0950345437        0.6687940094
 H          8.2895068565        0.5106685650       -0.9796612257
 H          6.7427936345        1.9408430842       -2.2621761577
 H          4.3037882766        1.7602291972       -1.8948308264
 H          4.0717724090       -1.2816431081       -2.1421808240
 H          2.8253694755       -2.4904548094       -3.8694924488
 H          0.3361491769       -2.4074091780       -3.8392261666
 H         -0.8074564172       -1.2726487178       -2.0674236040
 H         -1.9042547898        0.3805248340        1.5598854884
 H         -1.4831285734       -0.6574338041        2.9027889473
  107
  -132.739360735000       7.831034176596802E-002 !
 C         -5.3050376328       -0.2048464728        2.1495648682
 C         -4.1105908484       -0.8548178552        2.8645631028
 C         -4.5920946913       -2.0897775411        3.6419606338
 C         -3.5680058784        0.1514849079        3.8848220231
 C         -3.0904038885       -1.2952179420        1.8214256975
 C         -3.4163461871       -2.1969246830        0.8917383349
 C         -2.4352852916       -2.6484181137       -0.0592653289
 C         -1.1785906024       -2.1984179760       -0.0599313034
 C         -0.6013641505       -1.2075685683        0.9250329739
 C          0.3514426704       -2.1548571939        1.8135073906
 C          1.0563419812       -1.5354458157        3.0332523014
 C          1.4702540465       -2.8302867145        1.0067018912
 C         -0.5208630769       -3.2878150978        2.3945332762
 C          0.1600517522        0.0316458969        0.1623904114
 C         -0.7449104902        1.2344334381       -0.5599988783
 C         -1.0560254457        2.6897749809        0.0637189628
 C         -1.9194771481        2.7732870400        1.3342357717
 C          0.2005476671        3.5528991409        0.2897945340
 C         -1.8810335578        3.4872540088       -0.9771094531
 C          0.1437591601        1.6078475548       -1.7295638089
 C         -0.2667416952        1.6638080917       -2.9950934715
 C         -1.5957031891        1.2565138402       -3.3773749710
 C         -2.4737943606        0.7980067866       -2.4792292896
 C         -3.8400664191        0.2798537206       -2.9096245077
 C         -3.6347401202       -1.0871458525       -3.5814204181
 C         -4.4884317503        1.2468535983       -3.9111450676
 C         -4.8167454422        0.0994256571       -1.7426914959
 C         -2.1052284257        0.6582276225       -1.0264100122
 C          1.1351047093        0.6823840852        1.1298781027
 C          0.7029815489        1.2253091218        2.3363731453
 C          1.5286431847        1.9110010854        3.2073501684
 C          2.8587312499        2.0927856531        2.8799809067
 C          3.3407366226        1.5252223481        1.7219648715
 C          2.5101808608        0.7933408317        0.8647357076
 N          3.0859444756        0.1722481350       -0.2255781333
 C          4.5022785018        0.1801297334       -0.3551716447
 C          5.2684532510       -0.6905386077        0.4103926679
 C          6.6465444782       -0.6796173984        0.2935028475
 C          7.2624892049        0.1946148245       -0.5866557654
 C          6.4986362448        1.0602791303       -1.3520111420
 C          5.1199194329        1.0571182405       -1.2380540201
 C          2.3199741597       -0.5172532143       -1.1487884010
 C          2.9757415907       -1.1568551244       -2.2063717230
 C          2.2716035987       -1.7754891275       -3.2131458189
 C          0.8902572054       -1.7272156482       -3.1854952678
 C          0.2468260249       -1.1299302681       -2.1199748397
 C          0.9219174696       -0.5544455439       -1.0417642782
 C         -1.7311292859       -0.6476710425        1.8310510634
 H         -6.0609101189        0.0935945696        2.8729461038
 H         -5.7613043981       -0.8918265633        1.4428342516
 H         -4.9855960405        0.6805945332        1.6040636373
 H         -5.0731239607       -2.8078570257        2.9845496791
 H         -3.7516590150       -2.5830612350        4.1261676985
 H         -5.3065448145       -1.7967210115        4.4085152783
 H         -2.7656667903       -0.2775699248        4.4807607422
 H         -3.2083746375        1.0576221425        3.4059254839
 H         -4.3680725292        0.4328710840        4.5670923671
 H         -4.3952174719       -2.6496367424        0.8473869436
 H         -2.7373361735       -3.4042092029       -0.7720408913
 H         -0.4828852733       -2.6585184215       -0.7384002743
 H          1.4049425557       -2.3487971941        3.6690596664
 H          0.4068528307       -0.9156855187        3.6423145999
 H          1.9267805529       -0.9529604836        2.7544452665
 H          2.0378693364       -3.4784912061        1.6731401525
 H          2.1569111130       -2.1037843668        0.5908645782
 H          1.0935916937       -3.4504489918        0.1996185640
 H         -1.2853431571       -2.9018310388        3.0617039251
 H          0.1073914351       -3.9679463450        2.9664442273
 H         -1.0086736244       -3.8679483228        1.6185557438
 H         -2.2644566332        3.8016032425        1.4397110648
 H         -1.3725170546        2.5397934824        2.2377836029
 H         -2.8129904732        2.1556256702        1.2721485380
 H         -0.0719361113        4.4257714541        0.8807943100
 H          0.9922093163        3.0361726626        0.8138369396
 H          0.5919364014        3.9125204780       -0.6582763698
 H         -2.8996444287        3.1232327641       -1.0693193055
 H         -1.4249994556        3.4751465543       -1.9595900492
 H         -1.9337275997        4.5248247375       -0.6512065854
 H          1.1461649514        1.9139471194       -1.4742207341
 H          0.4058492952        1.9857093454       -3.7778199176
 H         -1.8429475300        1.3266018042       -4.4251909613
 H         -4.5819033435       -1.4735842649       -3.9527548012
 H         -3.2276467153       -1.8012758804       -2.8685976070
 H         -2.9429097843       -1.0036389236       -4.4159555320
 H         -5.5055278034        0.9288830237       -4.1314006306
 H         -4.5231415783        2.2526773038       -3.4980017447
 H         -3.9399718238        1.2803058622       -4.8475341749
 H         -5.7610321325       -0.2882836712       -2.1209562901
 H         -5.0220613394        1.0499971480       -1.2544209593
 H         -4.4384252729       -0.6036122471       -1.0059287497
 H         -2.9011430314        1.1092527525       -0.4364458521
 H         -2.1533540119       -0.4022142719       -0.7962408435
 H         -0.3145579982        1.0895459119        2.6333450386
 H          1.1285103074        2.3070259788        4.1284423886
 H          3.5197471288        2.6541980863        3.5227265112
 H          4.3834645692        1.6417939141        1.4699672366
 H          4.7776810807       -1.3667966679        1.0951132244
 H          7.2404576593       -1.3561275977        0.8899074267
 H          8.3384529731        0.2013414146       -0.6760696892
 H          6.9782425148        1.7424308745       -2.0381441854
 H          4.5139545393        1.7270715112       -1.8300581282
 H          4.0544504657       -1.1574075344       -2.2340812370
 H          2.7968234451       -2.2655718947       -4.0191459978
 H          0.3074648775       -2.1546541359       -3.9872327173
 H         -0.8234583631       -1.0812260265       -2.1703745846
 H         -1.9020361756        0.3858146637        1.5509165070
 H         -1.3869254741       -0.6514592290        2.8630534654
  107
  -132.738649432500       3.689156878803691E-002 !
 C         -3.6429199041       -4.7278216093       -0.3881834562
 C         -3.5869487164       -3.2820769861        0.1207757589
 C         -4.4380647658       -3.1963493105        1.3981599012
 C         -4.2162006299       -2.3875415788       -0.9548867647
 C         -2.1627004418       -2.8480083220        0.4396753060
 C         -1.1614938908       -3.7169969001        0.6051585444
 C          0.1707107179       -3.2779706799        0.9418575708
 C          0.4590067449       -1.9926836919        1.1338704674
 C         -0.5624676197       -0.8734358344        1.1076590766
 C         -0.7543008441       -0.6021868757        2.6843763152
 C         -1.7167653842        0.5150595202        3.1165657501
 C          0.5671366906       -0.4194860661        3.4573173371
 C         -1.3799178402       -1.8705049979        3.3128141942
 C          0.1416159401        0.1841751347        0.0224228345
 C         -0.7962397642        1.1102284758       -0.9594973849
 C         -0.0065613305        2.2899450592       -1.7215781315
 C          0.4203464358        3.5280177590       -0.9118710405
 C          1.2721252327        1.8123267210       -2.4227485098
 C         -0.9449104523        2.8408877225       -2.8181992253
 C         -1.3230986236        0.3084764880       -2.1264947196
 C         -2.6008235169        0.2238333425       -2.4973267853
 C         -3.6540617140        0.9338938957       -1.8194805432
 C         -3.3750842156        1.7019633903       -0.7641548889
 C         -4.4061048117        2.6126422912       -0.1132386352
 C         -5.8322743070        2.2790783595       -0.5683155685
 C         -4.1075309281        4.0639216245       -0.5248850734
 C         -4.3738331483        2.5077845412        1.4165098097
 C         -1.9884533254        1.7109723996       -0.1620379067
 C          1.0857213725        1.0963116894        0.7859282053
 C          0.5969632378        2.1290309902        1.5794836408
 C          1.3948743734        2.9106140636        2.3946661046
 C          2.7571892459        2.6798466609        2.4301780285
 C          3.2915070657        1.7157244960        1.6044151899
 C          2.4817935252        0.9425400673        0.7638930599
 N          3.0909113206        0.0502745702       -0.0953687519
 C          4.5109943163       -0.0009768517       -0.1551932633
 C          5.1977246285       -1.0053472322        0.5153741219
 C          6.5785343155       -1.0564441698        0.4501137965
 C          7.2761654466       -0.1075674114       -0.2789619836
 C          6.5916628212        0.8950733132       -0.9455877287
 C          5.2108131275        0.9507051351       -0.8869767000
 C          2.3485020028       -0.7619980326       -0.9346300368
 C          3.0351008148       -1.5888119872       -1.8299902537
 C          2.3680903812       -2.5009198542       -2.6144353084
 C          0.9967534437       -2.6165571576       -2.4807170689
 C          0.3182757219       -1.7707647348       -1.6262920524
 C          0.9481202567       -0.7809083385       -0.8682275390
 C         -1.9283210871       -1.3604368059        0.5552489217
 H         -2.9800963630       -4.8616215670       -1.2397618851
 H         -4.6569140527       -4.9663660893       -0.7031773061
 H         -3.3642240658       -5.4324189144        0.3908625781
 H         -4.5186604240       -2.1706749559        1.7512784761
 H         -5.4438261708       -3.5616791507        1.2002024849
 H         -4.0004084504       -3.8034251518        2.1878793048
 H         -4.3221348329       -1.3609019733       -0.6164333199
 H         -3.6090534475       -2.3941059808       -1.8571250480
 H         -5.2068586694       -2.7599221330       -1.2091351397
 H         -1.3047095570       -4.7802827442        0.5056880550
 H          0.9428684702       -4.0310750221        1.0162552419
 H          1.4620871646       -1.7018895814        1.4032759139
 H         -1.9270338728        0.3906386232        4.1781118728
 H         -2.6730930583        0.4559156955        2.6047120850
 H         -1.3031309314        1.5061453843        3.0022382742
 H          1.0792286503       -1.3718008716        3.5692124713
 H          0.3410990341       -0.0537800985        4.4575384571
 H          1.2486388334        0.2826899380        3.0000045843
 H         -0.8197585793       -2.7663709072        3.0710165052
 H         -2.4101054648       -2.0185301642        3.0104798109
 H         -1.3692894650       -1.7570947870        4.3957705724
 H          0.7465819527        4.2914021637       -1.6171433106
 H          1.2557945989        3.3295360256       -0.2526670150
 H         -0.3861264839        3.9661384894       -0.3318603250
 H          1.1294096358        0.9065640831       -3.0026019146
 H          1.6064241763        2.5909564135       -3.1075259958
 H          2.0688749677        1.6441985040       -1.7078198979
 H         -1.0760681591        2.1344051510       -3.6316602005
 H         -0.5194433942        3.7483795321       -3.2423215595
 H         -1.9222788075        3.0852385451       -2.4149682706
 H         -0.5857890194       -0.1284783160       -2.7773017720
 H         -2.8671239432       -0.3371051799       -3.3826501625
 H         -4.6380236005        0.8714883019       -2.2527665700
 H         -5.9638447031        2.4761960494       -1.6289208111
 H         -6.5431515065        2.8984257500       -0.0251218650
 H         -6.0693128201        1.2361865669       -0.3703415855
 H         -4.8725113696        4.7277494073       -0.1277155702
 H         -3.1445023292        4.3970647366       -0.1459579750
 H         -4.1015441360        4.1567552962       -1.6090245086
 H         -4.5801289800        1.4863581785        1.7297278828
 H         -5.1404807154        3.1503208904        1.8449169680
 H         -3.4164866794        2.8167032393        1.8251044308
 H         -1.7667953942        2.7452506600        0.0914770835
 H         -2.0665536118        1.1637548315        0.7714333932
 H         -0.4456164214        2.3626244330        1.5361984356
 H          0.9514720986        3.6891948053        2.9966074189
 H          3.4028059979        3.2557860818        3.0757843643
 H          4.3579197441        1.5506387767        1.6041807810
 H          4.6424040884       -1.7413648489        1.0778532420
 H          7.1114087861       -1.8384114897        0.9703285142
 H          8.3538736073       -0.1500131022       -0.3285437409
 H          7.1339318968        1.6346441218       -1.5157823861
 H          4.6680424625        1.7281512478       -1.4045826507
 H          4.1093884729       -1.5148640512       -1.8983604813
 H          2.9163165309       -3.1290964523       -3.3003621056
 H          0.4496150098       -3.3609900993       -3.0389194409
 H         -0.7384807841       -1.9305706924       -1.5292147151
 H         -2.0832331749       -0.9407385611       -0.4343377194
 H         -2.7326283592       -0.9489945155        1.1655189723
