73
 energy: -117.046960215402 gnorm: 0.000067710561 xtb: 6.7.1 (edcfbbe)
O           -0.33335409729435       -5.18927458433367       -0.44904367789439
S           -0.35702837248724       -4.27161090508093        0.65830352858075
O           -0.45179931972428       -4.80277391627263        1.99171145919931
C           -1.64878700728922       -3.04076167400871        0.42023261034308
C           -1.86126947710736       -2.55497745245073       -0.85734812996578
C           -2.54947921574879       -1.36909928193133       -1.03001505517019
C           -2.99049566716625       -0.66535171792918        0.08833684631832
N           -3.51667851565835        0.65878885249133       -0.05457705886995
C           -2.59167310254685        1.62857474066687        0.30742216771161
C           -1.25176510017477        1.23146656365753        0.45268964055833
C           -0.29267543883936        2.03085123466782        1.02679263360550
C           -0.64291322700091        3.30275821481627        1.50839036242702
C           -1.90484552746918        3.76323674873690        1.29708930953876
C           -2.91084258984469        3.00414746798763        0.62308436141323
C           -4.06659354288148        3.67984744873835        0.26743029557522
C           -5.15729125536438        3.23504273210471       -0.50787275011838
C           -5.51358852824885        1.94553618860100       -0.87285636305500
C           -6.74474615951424        1.80230095818080       -1.58244209952625
C           -7.33598829685318        0.59882547429095       -1.81127129991679
C           -6.72675152681198       -0.56559041088871       -1.31782851627805
C           -5.50214352199611       -0.48325428487728       -0.69880945003964
C           -4.81628932032064        0.72845454171148       -0.52318402290914
C           -2.84108173732741       -1.19920057767031        1.36394875264653
C           -2.16433307652035       -2.39380511511762        1.52777715512733
C            0.99655891060109       -3.11496898174135        0.52480402609005
C            1.17296826185046       -2.18704469855268        1.53699653598893
C            2.04834545736254       -1.13812761645570        1.36964209730755
C            2.76854437423285       -0.99476928650383        0.17234062687414
N            3.58252256143931        0.08458414609821       -0.03367005360909
C            4.37799372209259        0.23502780784630       -1.19566396042551
C            5.41043027763177       -0.66014372787254       -1.44676665720456
C            6.16815352341848       -0.54563832097345       -2.59696998655659
C            5.89466929971549        0.46735449431828       -3.50395074696568
C            4.87642924311837        1.36407524515242       -3.25233335289470
C            4.11042844532668        1.27957907373908       -2.08746561026516
C            3.07451178054238        2.26827798687915       -1.83943121160678
C            2.71303947225600        2.75852768308094       -0.64688848873339
C            3.29253332555133        2.40391098005639        0.63826660492155
C            3.40361223936330        3.38005690509781        1.63106300612018
C            3.99310837148875        3.09815692496445        2.84645940590608
C            4.48763703183895        1.82758773887346        3.10013965426884
C            4.36938080814447        0.83990185835887        2.14008463974263
C            3.75741982914037        1.11472506154434        0.92352472225573
C            2.58041102840239       -1.95153534730410       -0.83835396764408
C            1.69447496200726       -2.99197625048146       -0.66304262742852
H           -1.46005662277486       -3.10083017630858       -1.69650070268338
H           -2.70656335940814       -0.95463766473741       -2.01435960707301
H           -0.93566128610219        0.25832844345168        0.11127572528225
H            0.71881832679644        1.66917307489177        1.11637593995732
H            0.09261343831622        3.90933193002818        2.01512090387771
H           -2.17773046727202        4.75881697311291        1.61596721247967
H           -4.11096854256116        4.72014500416464        0.56238847578777
H           -5.84624899351610        4.01229532506371       -0.81165340270767
H           -7.22592884975261        2.71091074971365       -1.91403658125043
H           -8.27458915916387        0.53598321528142       -2.34038401522158
H           -7.20787969434542       -1.52399081056078       -1.43075687040845
H           -5.05777166133078       -1.40000831162401       -0.34446629863968
H           -3.21743788412803       -0.65247726781503        2.21519546706519
H           -2.00551414197088       -2.82500970783055        2.50346951142227
H            0.61597732392375       -2.29810549825913        2.45377300360770
H            2.16319814345042       -0.41000695248012        2.15714799309921
H            5.59819931220189       -1.45596300537284       -0.74090057675099
H            6.96352891817074       -1.24908907173708       -2.79052348718742
H            6.47711137831601        0.55377023798590       -4.40874363527003
H            4.66707379802165        2.15551677269050       -3.95736675203614
H            2.63022464868876        2.69777878185707       -2.72809354988116
H            1.98753868790171        3.56104318701630       -0.61650008459767
H            3.02785033244529        4.37254261647261        1.42859658088262
H            4.07042847453927        3.86781053003848        3.59952357040231
H            4.95450896126536        1.60457482427809        4.04739728722516
H            4.73323200043094       -0.15900669387592        2.33152750399381
H            3.11367800055772       -1.85364107072718       -1.77111073653039
H            1.52942379219729       -3.72194873956184       -1.43988574678200
