73
 energy: -117.042295520970 gnorm: 0.000162442043 xtb: 6.7.1 (edcfbbe)
O           -0.02975591114800       -3.03008837640801        3.08534288500154
S           -0.03442653960863       -1.59121504772063        3.01730781729060
O           -0.07040511802139       -0.84530092294555        4.24908905761959
C           -1.42120560853200       -1.07125034146817        2.00554258098012
C           -2.09009553045928        0.10404166087677        2.29079723192743
C           -3.11909370487732        0.53158072700369        1.47893473177467
C           -3.49039551648299       -0.20021639148837        0.33762188215737
N           -4.54397612380725        0.20811167211639       -0.46426108266556
C           -4.91430146095288       -0.55682535392467       -1.58478872519743
C           -3.95165938693495       -0.83882035171001       -2.54169163548120
C           -4.21340634504517       -1.68644510450788       -3.60256265842951
C           -5.45558832272088       -2.33487311875691       -3.66932316561195
C           -6.42147175893368       -2.06650607501639       -2.74662692179855
C           -6.23331437122675       -1.11057786279435       -1.69972271280627
C           -7.29747475758493       -0.81318936110905       -0.86045443014379
C           -7.47350150684135        0.33619581031954       -0.03885520912403
C           -6.62193492888338        1.42203778016653        0.10666233345230
C           -7.14514046639477        2.65050866322384        0.61860438916832
C           -6.39608228793155        3.78635458970171        0.69083738417763
C           -5.05494575505853        3.77686433992391        0.27963509803185
C           -4.47924820259416        2.58297314503683       -0.11500763297079
C           -5.21704846651555        1.41150644297942       -0.18607464974556
C           -2.83406833450954       -1.42215982832064        0.10595726824403
C           -1.80719459525292       -1.84146532581217        0.92413717648659
C            1.35948189010438       -1.05282204606344        2.04107989407320
C            1.74485006275840        0.27525933304635        2.07924326522064
C            2.78478929869596        0.71424512517029        1.28978659360374
C            3.45384048874165       -0.17395531461712        0.43233104272678
N            4.50796118027469        0.25206958351927       -0.33209626425290
C            4.90237776472418        1.60961938807224       -0.40824728262454
C            4.02017715439454        2.56484691572682       -0.89889002247506
C            4.38232043741284        3.89822790756837       -0.93237574127662
C            5.63308923822217        4.28422583916803       -0.47467460036562
C            6.51827687714834        3.33639079284046       -0.00295140182903
C            6.18128031328332        1.98134776175160        0.02112018644029
C            7.16161722198399        1.01009581818843        0.47702989616126
C            7.32197946410512       -0.23340116155299        0.00688515810344
C            6.54824904180216       -0.85740629392833       -1.05334082424035
C            7.17616297696790       -1.74750739952603       -1.92719312527448
C            6.48903107249682       -2.32171378525032       -2.97723756824208
C            5.15034837569397       -2.02052815407730       -3.17748379161323
C            4.50354786315552       -1.15796388185838       -2.31263685909539
C            5.18751528567019       -0.59209557137511       -1.24335223664721
C            3.06467566268557       -1.52264441639027        0.43149536909910
C            2.02233377036592       -1.95055702686674        1.22433256414006
H           -1.80765727306963        0.66126969267561        3.17006968303238
H           -3.65476226395857        1.42766940371806        1.74636322066856
H           -2.98081190250901       -0.37086051905053       -2.45284419152034
H           -3.46820468750430       -1.85140732687330       -4.36418038271707
H           -5.64535506073556       -3.03887189750718       -4.46592400877350
H           -7.38730991581983       -2.54506265884811       -2.81489332421278
H           -8.16717802679213       -1.45043546414192       -0.94926258995478
H           -8.45597333500162        0.43810009780354        0.40236707204078
H           -8.18568868910960        2.66541121269378        0.90768297955541
H           -6.83463851010144        4.70470301545857        1.05202188043201
H           -4.47638335939860        4.68669458749591        0.27841330256196
H           -3.43316763327251        2.55353504017015       -0.38737215101023
H           -3.14675811910686       -2.05916207890999       -0.70521438474682
H           -1.31065730881565       -2.78270894356402        0.74901135443060
H            1.23348417736864        0.94838050971329        2.74913460572503
H            3.09911477683853        1.74494264732674        1.34313049793483
H            3.04217452517749        2.25252436942936       -1.23526740027445
H            3.68804568586421        4.63580399655807       -1.30555648032472
H            5.91501855041813        5.32620829580784       -0.48684369161353
H            7.49557626191801        3.63683508401898        0.34603168931027
H            7.87508695303177        1.38475617129364        1.19962157344866
H            8.15903399474031       -0.81745723538789        0.36714481165770
H            8.22132538282821       -1.97595263217692       -1.77667896397118
H            6.99441028385372       -3.00551136925685       -3.64234649216054
H            4.60994629836990       -2.46437946416743       -3.99980698277114
H            3.45627046054043       -0.92899862491879       -2.44642789523484
H            3.59649543250620       -2.23297064680784       -0.18210080825457
H            1.72037126352988       -2.98590851422137        1.23961940752208
