84
 energy: -126.589203183711 gnorm: 0.000038167397 xtb: 6.7.1 (edcfbbe)
C            4.45898628135759        3.77432172726854        0.69834394831609
C            4.46500840205251        2.78123818604279       -0.48045403904217
C            5.17503275272651        3.40673778329829       -1.69734614714144
C            5.22205943068878        1.53819362941161       -0.06100631143179
C            6.55271436931894        1.63876143798940        0.32253452249297
C            7.28347714072605        0.53685706441190        0.72816919932449
C            6.67724079035677       -0.70978414790952        0.76532755853524
C            5.35853992860125       -0.84107400583476        0.39143639429522
C            4.61879080596906        0.27127031026573       -0.03369767926955
N            3.30078567212067        0.10736914268684       -0.40927527920209
C            2.70839801612308       -1.18670253379190       -0.34402096932244
C            2.90797739327148       -2.10959132239852       -1.36665352947245
C            2.27149073799871       -3.33256456289482       -1.32169187897631
C            1.39965239630737       -3.64474962834093       -0.27395070791398
C            0.67356620158870       -4.92749462698338       -0.28762448629816
O            1.20062710033474       -5.97114970769605       -0.73256731339869
C           -0.68766392168698       -4.92673431014900        0.27667722119384
O           -1.21694629697833       -5.97031342271633        0.71913928390372
C           -1.41086697055040       -3.64234140411174        0.26609839744288
C           -1.27590014672574       -2.73430056284140       -0.79047023590855
C           -1.91636500322831       -1.51492210792715       -0.74938092113575
C           -2.71297888741108       -1.18103249864903        0.34249258352255
N           -3.30134635978723        0.11469310764575        0.41102016265535
C           -2.51472675354256        1.17013507713217        0.83057123734126
C           -1.19279491317367        0.93056536601993        1.23133819969999
C           -0.38308045430917        1.96438865551697        1.64397993280938
C           -0.87489568504233        3.25969172423959        1.66747893652986
C           -2.18276861005672        3.49795110724709        1.28727544415625
C           -3.02564229004372        2.47637193948896        0.87032851812212
C           -4.45570003153265        2.79274179690916        0.48524423201187
C           -4.44568101009752        3.78686535104551       -0.69264189389613
C           -5.16358433406683        3.41985884659807        1.70255217111427
C           -5.21735938481489        1.55296136923716        0.06446580091351
C           -6.54757297419769        1.65891173921988       -0.31916673176935
C           -7.28243950039621        0.56014057486157       -0.72588825907090
C           -6.68092864783346       -0.68875679731932       -0.76406830887355
C           -5.36272398153620       -0.82532871140084       -0.39033040704209
C           -4.61879133187123        0.28383669601093        0.03580008916534
C           -2.91480786349413       -2.10585405787843        1.36293053545504
C           -2.28164676718359       -3.33043810939310        1.31479610926703
C            1.26673003699312       -2.73882277883512        0.78469278451713
C            1.91048444367527       -1.52107095121618        0.74675348771619
C            2.51792186992281        1.16625725154312       -0.82716023002976
C            1.19493671942212        0.93210661438623       -1.22763759677222
C            0.38887497140384        1.96946955376796       -1.63852697820002
C            0.88548537661213        3.26296978015532       -1.66062030100904
C            2.19440914228889        3.49588616777624       -1.28072193155767
C            3.03365429218743        2.47064748950615       -0.86543012937949
H            3.97096471080646        3.32517063800577        1.56117227212415
H            5.47258950073703        4.04365675916352        0.97973680330630
H            3.92565473681637        4.68250732255775        0.43420736639721
H            6.20413184416911        3.65656280478190       -1.45725043339204
H            4.66924708198389        4.31355665069069       -2.01511612014941
H            5.17653626002711        2.70359529314891       -2.52817949081464
H            7.03850881883062        2.60189201897350        0.30822309902463
H            8.31669469174718        0.64968739449191        1.01864961104526
H            7.23103581569293       -1.57903493475773        1.08658932951724
H            4.88602303403828       -1.81034025098611        0.42651122512916
H            3.55181563789117       -1.85868604485756       -2.19660956722530
H            2.40831471030798       -4.05712852260714       -2.11101662289936
H           -0.67215777505388       -2.99612517997709       -1.64582848092483
H           -1.80240848791079       -0.81094070414457       -1.55999698349753
H           -0.80886805406710       -0.07692618421797        1.21477047287671
H            0.63213585903246        1.76110758067365        1.94734857198291
H           -0.24585932309430        4.07694190739237        1.98456270835050
H           -2.55306842322204        4.51054438172801        1.32045360516014
H           -5.45817360527813        4.06120326740776       -0.97319064300483
H           -3.90794156405044        4.69229711350910       -0.42798080633218
H           -3.96028741790965        3.33625544412546       -1.55618919239378
H           -5.16676871221922        2.71647950334991        2.53317547275850
H           -6.19206881431438        3.67259590487197        1.46288742491139
H           -4.65519550873658        4.32519106395483        2.02040687875561
H           -7.02973328804796        2.62386263462965       -0.30405728147475
H           -8.31516176138979        0.67711852450568       -1.01648293720432
H           -7.23801191367782       -1.55562583288380       -1.08608645722015
H           -4.89384418569925       -1.79632381854409       -0.42630190289257
H           -3.55764598315481       -1.85521018309974        2.19373663646079
H           -2.42015066039737       -4.05655151427504        2.10240745423598
H            0.66202327245485       -3.00104982951266        1.63924678143923
H            1.79815045158506       -0.81881284950235        1.55907312501246
H            0.80725075579663       -0.07396019288216       -1.21217121906619
H           -0.62722953656568        1.77032256896084       -1.94163255927234
H            0.25929383156687        4.08291164336294       -1.97638279158938
H            2.56847114188483        4.50713395900304       -1.31279461348729
