81
 energy: -122.757998115659 gnorm: 0.000054116605 xtb: 6.7.1 (edcfbbe)
C           -1.25014798378005       -2.01263247021925       -1.77528073028248
C           -0.57754700522641       -1.00646063723545       -0.88901361507870
C            0.80811739191550       -0.95152342544068       -0.85278454327875
C            1.49082008426234       -0.03664392990354       -0.06092218539481
C            2.96437585402767       -0.03746201764519       -0.04679278080486
C            3.65560314000386       -0.59838961110773        1.06435284450766
C            2.95866838279853       -1.20194274656063        2.11478316500683
C            3.62949205198085       -1.81033548239577        3.17304365959340
C            5.00596597477842       -1.85547477151566        3.17307876159369
C            5.72371681131465       -1.27147035669471        2.12867633974935
C            5.08095613576653       -0.60524481283215        1.08452060934240
C            5.80694706534396       -0.00578496575020        0.00215201863041
C            7.26101065397837        0.01274765458005        0.02767797149313
C            8.00682670086355       -0.50539390617473       -1.04144042502390
C            9.38218422333330       -0.49775370457837       -1.01770861839816
C           10.06011587948359        0.04911353335657        0.07703650858265
C           11.46893154849400        0.06724921476765        0.10189417950568
N           12.61673088217531        0.08205586959296        0.12217754651841
C            9.33003217897280        0.57764375930299        1.14696706582916
C            7.95493911783621        0.54945591490478        1.12227695688621
C            5.10461166094152        0.56849862072491       -1.10919951896499
C            5.76719422996998        1.24908705218947       -2.13111749889395
C            5.07417615407662        1.80269633252567       -3.20872060729838
C            3.70152767280951        1.70918847286813       -3.26582107674486
C            3.00759518454187        1.08836755707021       -2.22969033649630
C            3.67952586942716        0.52082238895159       -1.14347007566880
C            0.76786023022079        0.88635668486393        0.70269608827635
C            1.48156963528399        1.91233283472841        1.52929345562052
C           -0.61391018998082        0.84129043928237        0.65445853315385
C           -1.29947833904255       -0.09767436805936       -0.11181508537043
C           -2.77337247939256       -0.08253188195912       -0.08301202413708
C           -3.50049892913476       -1.21094461718391        0.28574481521881
C           -4.87941686185347       -1.17686257555946        0.34029001808420
C           -5.56411424538605       -0.01151609223511        0.00621390845850
N           -6.96409392109905        0.02114816891107        0.04538382323369
C           -7.73372425213156        0.98070562380845        0.67292119414231
C           -7.33977720082521        2.07396128923160        1.43135648847645
C           -8.32803982145479        2.87214878321284        1.97480276705316
C           -9.67878202156700        2.59148602963159        1.78135435256037
C          -10.07703805632581        1.49074670122136        1.04941632901558
C           -9.10213120613729        0.67362947521159        0.49287372089254
C           -9.15080690173717       -0.53100408669124       -0.28746148191344
C          -10.19055231483638       -1.30130001147940       -0.79086026340692
C           -9.88298189224135       -2.41826688612915       -1.54172281525232
C           -8.55883257846688       -2.76116258792359       -1.80574509604255
C           -7.50734009037665       -2.01044927735430       -1.31595959878560
C           -7.80954417831355       -0.90093075361035       -0.53924756509615
C           -4.84440020905833        1.12085838187560       -0.36534264757231
C           -3.46473785998701        1.08487349394000       -0.39561169615382
H           -2.23725213669190       -1.67178763690345       -2.07825790028438
H           -0.64896774588467       -2.19166994964098       -2.66440380450295
H           -1.36293218859351       -2.96407817172367       -1.25493359930727
H            1.38061318989637       -1.64676552323979       -1.45143324251799
H            1.87897372457742       -1.20580108234425        2.09464232742616
H            3.06478665812058       -2.25843745776740        3.97686563870632
H            5.53941434306370       -2.34783060009950        3.97215959631706
H            6.79960126361840       -1.35526130715901        2.12904541333921
H            7.48663270054741       -0.95115131687390       -1.87675476268217
H            9.94761335741428       -0.91599509052762       -1.83777779827408
H            9.85515189909044        1.00997356120989        1.98631366319183
H            7.39431657560395        0.98093428300308        1.93875535021874
H            6.83876848127880        1.36937353587880       -2.08747398197841
H            5.62374063095356        2.30808891213423       -3.98849433797325
H            3.15598880466527        2.13041954132616       -4.09688738428290
H            1.92908073794363        1.04999432590021       -2.25788135888876
H            2.21561319926710        2.44319724299276        0.92399483805880
H            2.01561428542383        1.43733095428083        2.35222122042906
H            0.77848163143640        2.63145691164029        1.94207615540883
H           -1.18655614150972        1.54733769366625        1.24016026617854
H           -2.97723035586005       -2.11479849985223        0.55942705963821
H           -5.43417478535369       -2.04750377207147        0.65682971058049
H           -6.29604148421962        2.28985729997779        1.60328040392209
H           -8.04667897166679        3.73121519381243        2.56598756641820
H          -10.42086217853270        3.24174933250476        2.22014996666491
H          -11.12354813822324        1.26324618828964        0.91321503571632
H          -11.21673627509678       -1.02576843523663       -0.59979212212038
H          -10.67655380564421       -3.03271594954910       -1.94016340560964
H           -8.34915327146679       -3.63157921251616       -2.40995191303902
H           -6.48523524473861       -2.27480276877828       -1.54198849361216
H           -5.37310809335957        2.02046997770893       -0.64300788937093
H           -2.91124599633916        1.96499064482192       -0.68950162278423
