  81
       -122.82176756
 C         -1.2482601224       -2.2193625096       -1.4739539484
 C         -0.5789961872       -1.1295600892       -0.6900520700
 C          0.8076582733       -1.0729095231       -0.6568747912
 C          1.4862651722       -0.0745959422        0.0254868139
 C          2.9674030825       -0.0537046113        0.0154289119
 C          3.6825634172       -0.7101894432        1.0236356527
 C          3.0178897515       -1.4027174748        2.0695865213
 C          3.7175286671       -2.0536097988        3.0378071575
 C          5.1267826859       -2.0611583055        3.0102136534
 C          5.8011642335       -1.4066629552        2.0257804506
 C          5.1116752937       -0.6951657375        1.0086898296
 C          5.7878640593       -0.0095449788       -0.0110955575
 C          7.2643058682        0.0131540506       -0.0258677749
 C          7.9695424663       -0.6543580945       -1.0258900944
 C          9.3489074630       -0.6380695239       -1.0454321668
 C         10.0471495034        0.0569632240       -0.0568150780
 C         11.4598985721        0.0813122813       -0.0722847790
 N         12.6066125079        0.0967115850       -0.0792177238
 C          9.3494255632        0.7296015487        0.9475595040
 C          7.9701177265        0.7025036192        0.9586882522
 C          5.0715696026        0.6544639678       -1.0178690175
 C          5.7195321230        1.3892204362       -2.0456798489
 C          5.0069766544        2.0261839770       -3.0146085010
 C          3.5984366371        1.9752844640       -3.0155794849
 C          2.9376591283        1.2987887774       -2.0376903160
 C          3.6427426044        0.6240846962       -1.0065811566
 C          0.7670978305        0.9151391232        0.6997048153
 C          1.4871934324        2.0056742204        1.4324782215
 C         -0.6150146810        0.8624069885        0.6629567924
 C         -1.3006233563       -0.1447881871       -0.0116117179
 C         -2.7746835839       -0.1155297541        0.0009416420
 C         -3.5206921963       -1.2061227613        0.4390044001
 C         -4.9002688717       -1.1560658570        0.4616959930
 C         -5.5656810658       -0.0120221613        0.0305768705
 N         -6.9662938853        0.0348133247        0.0331435110
 C         -7.7413264792        1.0357812843        0.5835509715
 C         -7.3547305810        2.1627424775        1.2947655683
 C         -8.3475866910        3.0001744737        1.7656450441
 C         -9.6957857265        2.7260459584        1.5458823144
 C        -10.0872580508        1.5942863737        0.8593528810
 C         -9.1076360335        0.7368410335        0.3761222561
 C         -9.1486547088       -0.5056947373       -0.3424717152
 C        -10.1820888581       -1.2873667874       -0.8416563195
 C         -9.8659868640       -2.4450180694       -1.5238850207
 C         -8.5389680038       -2.8193395508       -1.7232778661
 C         -7.4936272698       -2.0585197092       -1.2363355802
 C         -7.8054810438       -0.9055799800       -0.5300948560
 C         -4.8273857818        1.0850781197       -0.4040682574
 C         -3.4480184059        1.0330334773       -0.4071403211
 H         -2.2354334551       -1.9127584298       -1.8111670293
 H         -0.6446794577       -2.4830339488       -2.3401497813
 H         -1.3593655237       -3.1157101909       -0.8631485206
 H          1.3805996583       -1.8237612984       -1.1836899597
 H          1.9375918368       -1.4032713862        2.0758203278
 H          3.2011715491       -2.5765938117        3.8292566919
 H          5.6673522736       -2.5974661210        3.7762883548
 H          6.8807659252       -1.4274625646        2.0038281216
 H          7.4241136992       -1.1933842092       -1.7868670555
 H          9.8945705082       -1.1582669430       -1.8189967643
 H          9.8956419342        1.2670235852        1.7088864421
 H          7.4252494082        1.2250318930        1.7314732443
 H          6.7982998519        1.4422819364       -2.0446540254
 H          5.5162676925        2.5803025734       -3.7893389696
 H          3.0510691043        2.4845870429       -3.7949604681
 H          1.8580672819        1.2643010211       -2.0259102108
 H          2.1014135201        2.5845160323        0.7422933138
 H          2.1498936715        1.5835029356        2.1877888959
 H          0.7822779780        2.6752044838        1.9193373494
 H         -1.1871431772        1.6172776571        1.1845731890
 H         -3.0130218146       -2.0920162386        0.7896936446
 H         -5.4708561105       -1.9975261772        0.8256644479
 H         -6.3132491577        2.3744490946        1.4851913665
 H         -8.0723857202        3.8856018307        2.3197597257
 H        -10.4415813569        3.4072108900        1.9279538643
 H        -11.1323326875        1.3735712224        0.7023327268
 H        -11.2099571907       -0.9889062987       -0.7005031590
 H        -10.6546812890       -3.0681809575       -1.9185153740
 H         -8.3222560506       -3.7228520058       -2.2741602922
 H         -6.4682449476       -2.3480089290       -1.4110970699
 H         -5.3416424000        1.9684507615       -0.7523335650
 H         -2.8800852245        1.8840609000       -0.7543177726
