81
 energy: -122.821881002244 gnorm: 0.000028944707 xtb: 6.7.1 (edcfbbe)
C           -1.24688631095518       -2.20605287248252       -1.51412155521537
C           -0.57795029696087       -1.11714157083504       -0.72870515069192
C            0.80867370129077       -1.06073012945962       -0.69341543535155
C            1.48612163652962       -0.06396988991370       -0.00767257533313
C            2.96732923190470       -0.04744353427359       -0.00708779214921
C            3.67150545941917       -0.71110267793042        1.00423464749667
C            2.99573607739144       -1.40750645390907        2.04047025336077
C            3.68504237891481       -2.06394055337226        3.01235868849495
C            5.09450138949278       -2.07329003059596        2.99867651265571
C            5.77938520014728       -1.41548289493018        2.02374958000942
C            5.10069244443752       -0.69894066468441        1.00293666508607
C            5.78783960564505       -0.01015149797152       -0.00722782126712
C            7.26456983942129        0.01072088620463       -0.00686875710176
C            7.97963012364389       -0.66210671170626       -0.99621568031653
C            9.35918942757527       -0.64759458740668       -1.00072829932881
C           10.04749828538382        0.05124459491275       -0.00775582596902
C           11.46038137601139        0.07208005315410       -0.00858047210641
N           12.60693061624188        0.08904747263166       -0.00968402991272
C            9.33978318778606        0.72957963566640        0.98574360344234
C            7.96035162296940        0.70391777277258        0.98209897318673
C            5.08270313590671        0.66001006895089       -1.01760799124038
C            5.74231045059285        1.39724238353548       -2.03621658242416
C            5.04038289386188        2.04250600573703       -3.00739821166917
C            3.63167008420323        1.99738634814221       -3.02026962725306
C            2.95997305284028        1.31721125654805       -2.05237139153210
C            3.65373652569955        0.63391828111916       -1.01924102919161
C            0.76598428935874        0.92611929946846        0.66504139407464
C            1.48518673482389        2.01371588220429        1.40298379432862
C           -0.61605586593478        0.87363012206685        0.62605599718328
C           -1.30043846977301       -0.13377828196333       -0.04934837769635
C           -2.77455976387016       -0.10853812999093       -0.03257343358454
C           -3.51462826706344       -1.19979127478568        0.41379133455101
C           -4.89405804299521       -1.15308153711529        0.44647615430710
C           -5.56553588258976       -0.01218113592735        0.01626521270849
N           -6.96605025109640        0.03203048870764        0.03210047662336
C           -7.73744145005728        1.03440019732181        0.58538320619585
C           -7.34585075230033        2.16900721671801        1.28160036099227
C           -8.33556347923612        3.00659702737217        1.75879153180883
C           -9.68551919910564        2.72526687871756        1.56007000732338
C          -10.08171061404513        1.58578468521694        0.88917804415484
C           -9.10529540985696        0.72809912439137        0.39995953922551
C           -9.15137413991712       -0.52097066472233       -0.30690269788331
C          -10.18874622089685       -1.31169244385326       -0.78327252475445
C           -9.87775119995389       -2.47414707833546       -1.45966088118610
C           -8.55214046054663       -2.84412912098188       -1.67605662882927
C           -7.50299139333197       -2.07435607415439       -1.21177361210596
C           -7.80933200034197       -0.91679257118857       -0.51064238328845
C           -4.83313398640968        1.08459580751937       -0.42912555873083
C           -3.45362359581433        1.03635822821428       -0.44115203352292
H           -2.23501572403443       -1.89995258558999       -1.84896880186428
H           -0.64434361921582       -2.46687714861215       -2.38190008752886
H           -1.35585562880739       -3.10397332095110       -0.90524390186485
H            1.38234057599954       -1.81121851096403       -1.21991853683145
H            1.91543461751692       -1.40640663832343        2.03650400589488
H            3.16022844268101       -2.58927994386749        3.79660819954798
H            5.62676845816512       -2.61244859104093        3.76850383566347
H            6.85921197981793       -1.43654556055565        2.01273035684810
H            7.44181203845791       -1.20403241704561       -1.76053967804109
H            9.91274111657993       -1.17221815536124       -1.76568254738056
H            9.87826850946788        1.27023456480926        1.75029086610360
H            7.40755458955344        1.23017887699573        1.74671383998237
H            6.82127315665015        1.44516380102024       -2.02611555679131
H            5.55829417942032        2.59863570396072       -3.77493337380819
H            3.09293736934923        2.51372185786627       -3.80104148503385
H            1.88018255734748        1.28638745977673       -2.04999659096023
H            2.13137752038639        2.57034669538317        0.72442463837311
H            2.11601381148841        1.58970167273571        2.18407254762988
H            0.77959970872202        2.70321001314921        1.85958185477983
H           -1.18906923780894        1.62817439093306        1.14720547596914
H           -3.00208485554440       -2.08310565036958        0.76395434291092
H           -5.45972372430454       -1.99433912409271        0.81852947611004
H           -6.30284543583370        2.38654886688196        1.45630987443253
H           -8.05633160946777        3.89789996130056        2.30135677619013
H          -10.42876341587020        3.40683087240604        1.94636540237036
H          -11.12792961904909        1.35924433020200        0.74887394574466
H          -11.21573481392307       -1.01652896073755       -0.62917765896478
H          -10.66950489384172       -3.10449198835471       -1.83642442909465
H           -8.33962285480744       -3.75142625158938       -2.22233301118927
H           -6.47907527207643       -2.36074349619120       -1.39990136624560
H           -5.35201575494715        1.96500241493885       -0.77798871382505
H           -2.89025136734120        1.88765173381064       -0.79508972424598
