81
 energy: -122.821814441602 gnorm: 0.000106420133 xtb: 6.7.1 (edcfbbe)
C           -1.02398166743757       -0.63480132323874       -2.61003625683734
C           -0.35452880864243       -0.30890376136169       -1.30786779557460
C            1.03221618624191       -0.29394278249199       -1.24332546124631
C            1.70967669657028       -0.02365842330282       -0.06407321675568
C            3.19090750896925       -0.01719114302413       -0.05070453211715
C            3.88858720249682       -1.18809223066149        0.26851276402416
C            3.20626133348142       -2.39322684297334        0.58092543623159
C            3.88863127873979       -3.52143578508648        0.91585834044634
C            5.29720728174581       -3.50944154492690        0.96592141328031
C            5.98844707990998       -2.37601196002549        0.66624085999052
C            5.31752090852470       -1.18142407991744        0.29348549752480
C            6.01152160978896       -0.00335227061853       -0.01908568445917
C            7.48825315594866        0.00430963720094       -0.00123301312107
C            8.20873709296369       -0.71203628078645       -0.95547845691256
C            9.58833381446525       -0.70682680332506       -0.94599234070749
C           10.27126029123487        0.01894802731079        0.03124750190059
C           11.68417940884870        0.02647028847484        0.04765624687677
N           12.83074101338290        0.03239163095097        0.06098548508533
C            9.55812438418736        0.73725378728508        0.99225066095388
C            8.17866606733856        0.72792077814065        0.96955533625408
C            5.31317230643512        1.16770826383420       -0.34767135870602
C            5.98046270213927        2.37014291221973       -0.70124626542874
C            5.28493821393655        3.49875919611517       -1.00898244127101
C            3.87554308710996        3.49714849466451       -0.98915348670918
C            3.19692564699571        2.36015416515306       -0.67719158906141
C            3.88393845730309        1.16017768853961       -0.35545348044612
C            0.98956074679316        0.23273496497827        1.10527495852082
C            1.70871710426232        0.51993519310510        2.38787257530159
C           -0.39247532608369        0.21294051901470        1.04297517581316
C           -1.07671572987690       -0.04211094161041       -0.14284573446649
C           -2.55117685365185       -0.02922122515243       -0.11379566915055
C           -3.23597152136741       -0.83529000994477        0.79159820951876
C           -4.61512547585713       -0.82092786821750        0.85101096734837
C           -5.34135002427666        0.00739196960934        0.00012961861763
N           -6.74177372946997        0.02282727847663        0.05452969398175
C           -7.53377767236980        1.14797875600130        0.16711660058651
C           -7.16481684004721        2.47929800091705        0.29695785714841
C           -8.17080552512704        3.41812904174200        0.42107480241774
C           -9.51427524824384        3.04918994149151        0.42526380474597
C           -9.88671582800441        1.72413755943544        0.32031837183822
C           -8.89365486892565        0.76162431448718        0.19473530061333
C           -8.91313355473367       -0.67019593535651        0.08775188008436
C           -9.93308723387514       -1.61150679620285        0.04320313771015
C           -9.59821310476556       -2.94410500774819       -0.08928681556546
C           -8.26677336613929       -3.34139427243282       -0.19164938077765
C           -7.23457152365966       -2.42401185411191       -0.14953921296514
C           -7.56385237695550       -1.08519665438909        0.00721583122777
C           -4.66435502928098        0.82218035848175       -0.90274073430806
C           -3.28472330227203        0.80339205388827       -0.95410629938203
H           -2.01717108348385       -1.04741426848091       -2.45047764769580
H           -1.12184546915316        0.26137313933251       -3.22340501809035
H           -0.42764241999049       -1.35340651516272       -3.16876524105854
H            1.60561937264549       -0.50311451195284       -2.13606079760443
H            2.12646745061319       -2.39222060321121        0.54855925624651
H            3.35864623527685       -4.43218688377159        1.15273527643142
H            5.82358633269960       -4.40944881579821        1.24795368102067
H            7.06738577534599       -2.37136393795443        0.71561958834998
H            7.67500024656788       -1.26924352663752       -1.71163479345517
H           10.14603928775932       -1.25894873324609       -1.68823731959181
H           10.09247166911881        1.29520287358183        1.74722114131461
H            7.62176955940417        1.27940268091623        1.71311465487296
H            7.06018649061836        2.37564752495545       -0.72853454881414
H            5.80859717286246        4.40523305273135       -1.27490345865571
H            3.34215935279174        4.40453372649599       -1.23122195058874
H            2.11676213886133        2.34777084566810       -0.67095663971097
H            2.33165539213777       -0.32794052211003        2.67260303581157
H            1.00316249330666        0.72048217234409        3.19018579553979
H            2.36268945367700        1.38385409456990        2.27123092533610
H           -0.96565409584239        0.41751770921530        1.93681021501432
H           -2.67714990892701       -1.48383749672342        1.45075367787998
H           -5.13769973668885       -1.43961442343282        1.56534401070095
H           -6.12610453927450        2.77356639848851        0.31265497293238
H           -7.90947733553158        4.46145819799682        0.52076434771993
H          -10.27089609416536        3.81367549663828        0.52149704899431
H          -10.92710840153488        1.43637946637909        0.33959963984006
H          -10.96540096003820       -1.30187961648662        0.10682894839875
H          -10.37602850619354       -3.69242407558383       -0.12366788492416
H           -8.03627815378841       -4.39001708677212       -0.31008095099866
H           -6.20674314618250       -2.74020514335322       -0.24671749853202
H           -5.22638763796861        1.45861419867959       -1.56996041410206
H           -2.76728990367623        1.44971555809468       -1.64706115462052
