  56
        -93.53453012
 N          8.9826330811        0.9082964242       -0.7854136913
 C          7.8998404540        0.6047816090       -0.5464132387
 C          6.5826869824        0.2380934744       -0.2560179961
 N          5.5578936455        0.8635754839       -0.7864750578
 C          4.3322077126        0.5625153115       -0.5495308289
 C          4.0600437948       -0.5920428687        0.4061485483
 N          5.0742533291       -1.1945783415        0.9156201703
 C          6.3213199746       -0.8721714983        0.6638020831
 C          7.3907366158       -1.5597920035        1.2444508270
 N          8.2685006496       -2.1293057800        1.7207996767
 C          2.6525709942       -0.7284051075        0.5019422085
 C          1.8023150260       -1.5878121490        1.1899356525
 C          0.4326774636       -1.4085967198        1.0342086331
 C         -0.1372984682       -0.4177836861        0.2383845305
 C         -1.5967842730       -0.2786018235        0.1889973431
 C         -2.4042906345       -1.3919831006       -0.0223622739
 C         -3.7893587300       -1.2694970775       -0.0702801787
 C         -4.6344872392       -2.4493033698       -0.3078282534
 C         -4.3490360829       -3.6623964975        0.3149888549
 C         -5.1482913968       -4.7691639873        0.0989169109
 C         -6.2410121947       -4.6843457218       -0.7479568985
 C         -6.5313818014       -3.4843527397       -1.3757715444
 C         -5.7373140033       -2.3745432291       -1.1558061935
 C         -4.3637435718       -0.0151098937        0.1089405728
 C         -3.5756230168        1.1077444970        0.3394000260
 C         -4.1932620048        2.4269489942        0.5419324023
 C         -5.3453860881        2.5614726137        1.3134098065
 C         -5.9247167937        3.8023230163        1.5014198329
 C         -5.3671116813        4.9274442013        0.9170553968
 C         -4.2228806649        4.8048790479        0.1464305936
 C         -3.6380538096        3.5660058610       -0.0371319982
 C         -2.1921386477        0.9661058575        0.3758711701
 C          0.7101304130        0.4555050722       -0.5007505184
 C          0.3400007849        1.4609710219       -1.4200829380
 C          1.3005162907        2.2249702413       -2.0568091333
 C          2.6692366315        2.0559211521       -1.8519988845
 C          3.0710825752        1.0525500295       -0.9791917605
 C          2.0862918713        0.2682756571       -0.3294160851
 H          2.1898895172       -2.3642621759        1.8302118708
 H         -0.2326436944       -2.0587103008        1.5848160636
 H         -1.9458736267       -2.3546901426       -0.1950904531
 H         -3.5080715226       -3.7298807277        0.9899091466
 H         -4.9198646004       -5.7015359259        0.5943916672
 H         -6.8637868164       -5.5499699361       -0.9179566252
 H         -7.3798943069       -3.4139942572       -2.0406381065
 H         -5.9587699996       -1.4456633823       -1.6612405811
 H         -5.4381449049        0.0875045477        0.0733070372
 H         -5.7750477586        1.6898652776        1.7855395368
 H         -6.8142086589        3.8930106274        2.1076576653
 H         -5.8219895562        5.8959831854        1.0621871566
 H         -3.7856155186        5.6786256626       -0.3144266779
 H         -2.7539523589        3.4761706925       -0.6517974542
 H         -1.5733664267        1.8221128649        0.6018442704
 H         -0.7034032137        1.6222657315       -1.6439023109
 H          0.9789029163        2.9879982533       -2.7511752754
 H          3.3889475834        2.6744463820       -2.3640710969
