  86
       -124.49932546
 C          8.6572607851       -3.4008987209       -0.9232371881
 C          8.9079207057       -2.6800229188        0.4010523236
 N          9.2612125351       -1.3007582394        0.1987943244
 C         10.5331103344       -0.8220937086       -0.0100327941
 C         11.7463070120       -1.4967522259       -0.0128663418
 C         12.8945265545       -0.7634261727       -0.2419953509
 C         12.8485553831        0.6111008630       -0.4662640268
 C         11.6466846185        1.2894047594       -0.4689772264
 C         10.4778299595        0.5740415787       -0.2419906110
 C          9.0925122699        0.9368508637       -0.1884245580
 C          8.4046034954        2.1343350629       -0.3401096306
 C          7.0315424093        2.1313687014       -0.2328314153
 C          6.3152333821        0.9500585229        0.0158371556
 C          4.8528189578        0.9863437733        0.1041557043
 C          4.1933715737        2.0452404527        0.7326282510
 C          2.8206839264        2.0768247631        0.8097036117
 C          2.0296826407        1.0582399987        0.2544112684
 C          0.6004831544        1.1524791832        0.3571368079
 C         -0.3031542648        0.2772904131       -0.1539760067
 C         -1.7217095650        0.3661509975       -0.0623114269
 C         -2.4087611017        1.3900611586        0.6279567537
 C         -3.7706193439        1.4342246677        0.6726827558
 C         -4.5722721298        0.4408078549        0.0456491723
 C         -5.9769057229        0.4443766411        0.1332395973
 C         -6.7328046875       -0.7878373300       -0.0807242779
 C         -7.9075518488       -0.7357301209       -0.8984771794
 C         -8.0279896000        0.2269196732       -1.9199946367
 C         -9.1652433644        0.3053216712       -2.6906770158
 C        -10.2288391209       -0.5591421652       -2.4670102942
 C        -10.1384875277       -1.5036425070       -1.4534789522
 C         -9.0014763541       -1.5966405870       -0.6825006129
 C         -6.2941525676       -1.9932124270        0.5524986882
 C         -6.5720886279       -3.2612851188        0.0021314885
 C         -6.1025227147       -4.4100925756        0.5975580677
 C         -5.3465918098       -4.3450627166        1.7608282170
 C         -5.0558257463       -3.1059862165        2.3165469877
 C         -5.5128310067       -1.9505341817        1.7255604329
 C         -6.7333428404        1.6378491496        0.4417767749
 C         -7.9357717526        1.5506945186        1.1599531254
 C         -8.6849793427        2.6761139939        1.4262050800
 C         -8.2680001837        3.9196949017        0.9738899484
 C         -7.0914221208        4.0226463703        0.2467290499
 C         -6.3316235053        2.9023882193       -0.0160436195
 C         -3.8763814640       -0.6003647902       -0.6286358197
 C         -2.5153994882       -0.6244495456       -0.6843931052
 C          2.6993901379       -0.0016263899       -0.3753034355
 C          4.0727274085       -0.0355786798       -0.4427711175
 C          6.9938194101       -0.2553387771        0.1674209152
 C          8.3756571395       -0.2565933129        0.0717528546
 H          9.5498690675       -3.3672085873       -1.5438896574
 H          8.3942769550       -4.4397451507       -0.7424475642
 H          7.8445704020       -2.9216626047       -1.4646248513
 H          9.7203659617       -3.1687525225        0.9461088812
 H          8.0110591423       -2.7202411562        1.0260032688
 H         11.8015263212       -2.5620797551        0.1544723061
 H         13.8499604222       -1.2672369625       -0.2498961087
 H         13.7689787556        1.1476093534       -0.6424015218
 H         11.6101625599        2.3538722693       -0.6455781347
 H          8.9397572425        3.0497912927       -0.5433250356
 H          6.4842143995        3.0515713425       -0.3724085634
 H          4.7722906809        2.8374287759        1.1845767048
 H          2.3340240730        2.9033809403        1.3089363589
 H          0.2431428700        2.0211619251        0.8938000895
 H          0.0594617218       -0.5849370646       -0.6981482463
 H         -1.8442519193        2.1493935033        1.1473648066
 H         -4.2595684850        2.2066430677        1.2475978808
 H         -7.1987465379        0.8903706360       -2.1141463677
 H         -9.2295410736        1.0439782425       -3.4765731977
 H        -11.1212916280       -0.4924802855       -3.0705483297
 H        -10.9704621259       -2.1658782054       -1.2608373055
 H         -8.9613262796       -2.3046009065        0.1321154023
 H         -7.1182298890       -3.3227503954       -0.9274519506
 H         -6.3166746880       -5.3699180953        0.1494897670
 H         -4.9823956095       -5.2493303543        2.2242868465
 H         -4.4670333364       -3.0474522746        3.2206484444
 H         -5.2963270086       -0.9936958026        2.1763342574
 H         -8.2598788026        0.5875940107        1.5258622173
 H         -9.6021363992        2.5880562005        1.9903782355
 H         -8.8586157198        4.7997208935        1.1792675785
 H         -6.7708269734        4.9853433131       -0.1249928836
 H         -5.4395282069        2.9868052244       -0.6193011105
 H         -4.4478307937       -1.3625780301       -1.1358543609
 H         -2.0188025515       -1.4189303353       -1.2246685412
 H          2.1343543750       -0.8073425696       -0.8182058053
 H          4.5578881829       -0.8559795691       -0.9520707747
 H          6.4451419277       -1.1608185800        0.3790790249
