85
 energy: -134.729885788575 gnorm: 0.000060407738 xtb: 6.7.1 (edcfbbe)
C            2.66440879333023        5.03843361105840       -0.07455122045445
C            2.83020382666113        4.33208093236361        1.26933129451901
N            2.36521117520193        2.97238502956601        1.22415127678823
C            1.11521352502459        2.51413397766689        1.56116903831846
C            0.01226212227156        3.22518694471593        2.01624441427751
C           -1.15129389889097        2.53322089827190        2.27750399648326
C           -1.23454305277931        1.15363998528641        2.08819664302422
C           -0.15279086727909        0.42871554827474        1.64193706640400
C            1.04170151212435        1.09795867387014        1.37896050713094
C            2.32711830037632        0.73352360682208        0.90746747134405
C            3.08985696163318        1.89082734797151        0.79378851351375
C            4.34331747965640        1.54281277651733        0.22477434579051
C            5.50189950909475        2.23400263873458       -0.12012541796947
C            6.56203903988386        1.53104421562359       -0.65132327230962
C            6.49455510286058        0.14957037688924       -0.82780431828598
C            5.35844322360149       -0.56293689615074       -0.49822370326253
C            4.27079027258619        0.13393297936304        0.00750760512227
N            3.04528677734260       -0.34710799416303        0.42830285422503
C            2.56362386314982       -1.65090191182060        0.37993663510828
C            1.89691226834393       -2.16232591939662        1.49639471929591
C            1.26015569257435       -3.38271189755487        1.41960132966254
C            1.30457916518252       -4.10396442354067        0.23875780645090
S            0.03939139048863       -5.35543016292517       -0.00620007840728
O            0.29173883799300       -6.08415047697105       -1.21914725824976
O           -0.20279585703644       -6.09072090217973        1.20485221583681
C           -1.24315533502851       -4.12110139107729       -0.24794363336952
C           -1.20905403901525       -3.39628479561070       -1.42694349761683
C           -1.86350207056125       -2.18510618970894       -1.50079419192636
C           -2.53777508193029       -1.68622738561835       -0.38319814739999
N           -3.03895851149039       -0.38971755120896       -0.42859744941797
C           -4.27150272461620        0.07178666163740       -0.00642422477011
C           -5.34822923891762       -0.64250790990952        0.49838147208554
C           -6.49487642034097        0.05200809444460        0.82988309212120
C           -6.58343159176582        1.43263892191550        0.65617275653155
C           -5.53436784641040        2.15264523036384        0.12582293124791
C           -4.36559002252734        1.47980658032404       -0.22095656318776
C           -3.11785352165812        1.84795839814404       -0.78986365261652
C           -2.33755370555022        0.70266350692876       -0.90596911582651
C           -1.05804117703798        1.08762051888160       -1.37723276325263
C            0.14655393425751        0.43729125936088       -1.64158346456313
C            1.21688264118618        1.17950246089632       -2.08697829640360
C            1.11227823638081        2.55791292144240       -2.27421301083730
C           -0.06168769580253        3.23147360432082       -2.01140511113886
C           -1.15335040544404        2.50281438112266       -1.55696133306060
N           -2.41006847910235        2.94126118478312       -1.21858959818873
C           -2.89575181184997        4.29380180347753       -1.26078129167908
C           -2.73981935621170        4.99993970723857        0.08440112626471
C           -2.63414948083076       -2.46316851289273        0.77173821696052
C           -1.97320743313403       -3.67543565834965        0.83840333298071
C            2.02810139590888       -3.64513367289381       -0.84648024063557
C            2.67138711302970       -2.42356884508151       -0.77684916013303
H            1.61858854606924        5.03592785327154       -0.37051040942572
H            3.23897221405813        4.52305638795628       -0.83990849291819
H            3.01219245300453        6.06586875418132       -0.00453308517161
H            3.88582132384580        4.32159128660260        1.55716290826309
H            2.27191921580322        4.86386728969397        2.04441415802272
H            0.05881488909634        4.29454004936924        2.16264367186263
H           -2.01926480764649        3.06740597815963        2.63437116256281
H           -2.16894581723609        0.65305836551205        2.29490551912332
H           -0.23159667702026       -0.63697530455769        1.48355174837050
H            5.57047271185483        3.30142705981943        0.02879753984698
H            7.46603302504487        2.05355730301114       -0.92670157961849
H            7.34978984931217       -0.37386471503309       -1.22817120867854
H            5.32493766602047       -1.63493986129838       -0.62046958157210
H            1.86313585463276       -1.57649759235815        2.40202598263483
H            0.70959942881732       -3.78361553596851        2.25604726805499
H           -0.65269533894077       -3.78706303456614       -2.26434079648721
H           -1.83822670790906       -1.59665631269101       -2.40500034289171
H           -5.29843848584787       -1.71411770068837        0.61847906890500
H           -7.34185714293547       -0.48515475423499        1.22961253278741
H           -7.49511532482123        1.94081946412474        0.93301767767801
H           -5.61923177408294        3.21918903114719       -0.02100438271353
H            0.24182028324899       -0.62730604094693       -1.48490169928018
H            2.15885597999627        0.69370976507444       -2.29462373928762
H            1.97172443918572        3.10596817977399       -2.63068112585496
H           -0.12477329790048        4.30020923643281       -2.15614422581289
H           -2.34616188804680        4.83557339539116       -2.03516261367336
H           -3.95128028602941        4.26780191714110       -1.54794764424012
H           -1.69388645307489        5.01273091192064        0.37969790488879
H           -3.30600523150968        4.47441723763540        0.84910348431450
H           -3.10318076781092        6.02212137976990        0.01663166499243
H           -3.16818237361324       -2.08490754973822        1.62967173519598
H           -1.98565606261297       -4.27298322375649        1.73658368259319
H            2.04914233952777       -4.24022304144839       -1.74613125581255
H            3.19988158836828       -2.03547151564849       -1.63382288085101
