  85
       -134.72982240
 C          2.7339540478        5.0285555080       -0.0941799776
 C          2.8611438482        4.3321656532        1.2591928339
 N          2.3883097454        2.9751235779        1.2138072387
 C          1.1339489363        2.5239701407        1.5441531318
 C          0.0301204740        3.2419411069        1.9859549292
 C         -1.1369536410        2.5555926267        2.2464608431
 C         -1.2235390385        1.1748737950        2.0675775125
 C         -0.1419281227        0.4434400728        1.6318032205
 C          1.0562688108        1.1068348893        1.3708394521
 C          2.3435775248        0.7343885676        0.9109680066
 C          3.1123560123        1.8877153962        0.7973280162
 C          4.3702752616        1.5306097767        0.2438780451
 C          5.5364561835        2.2140003113       -0.0908962605
 C          6.5988452715        1.5029200103       -0.6066111915
 C          6.5259385320        0.1210585169       -0.7778433149
 C          5.3825790840       -0.5839679758       -0.4573842838
 C          4.2932893482        0.1209336331        0.0334841396
 N          3.0613470530       -0.3520886010        0.4445025438
 C          2.5737259022       -1.6536738921        0.3954625030
 C          1.8943738744       -2.1589951655        1.5070641365
 C          1.2528098155       -3.3766906316        1.4275301825
 C          1.3054101271       -4.1014923442        0.2491742514
 S          0.0386819147       -5.3497661081       -0.0032540893
 O          0.2972283662       -6.0797875332       -1.2140716020
 O         -0.2128802247       -6.0839275876        1.2066353330
 C         -1.2408041841       -4.1139451022       -0.2533949022
 C         -1.1976165933       -3.3867237982       -1.4305629177
 C         -1.8560945634       -2.1779121754       -1.5087216089
 C         -2.5433178991       -1.6838602170       -0.3969453570
 N         -3.0524713480       -0.3905894042       -0.4452797233
 C         -4.2911033362        0.0614342326       -0.0305693218
 C         -5.3679156481       -0.6621066307        0.4607758241
 C         -6.5219820673        0.0235070746        0.7849526277
 C         -6.6178143984        1.4043426664        0.6167968465
 C         -5.5684956582        2.1335303598        0.0996367835
 C         -4.3921524806        1.4698268198       -0.2391301374
 C         -3.1421472481        1.8482588025       -0.7961816293
 C         -2.3541162999        0.7082507214       -0.9123674119
 C         -1.0740277059        1.1032308482       -1.3736700863
 C          0.1357187651        0.4611609080       -1.6348502607
 C          1.2040388422        1.2115585440       -2.0711127486
 C          1.0926592510        2.5904126016       -2.2512866825
 C         -0.0861228960        3.2560961874       -1.9900267671
 C         -1.1764101588        2.5188980555       -1.5461278217
 N         -2.4376543945        2.9482380312       -1.2130868487
 C         -2.9335289739        4.2972085707       -1.2527778860
 C         -2.8110142594        4.9921125446        0.1017240718
 C         -2.6465829927       -2.4625492166        0.7562538877
 C         -1.9820290136       -3.6725306694        0.8271035389
 C          2.0409720902       -3.6488782468       -0.8305266859
 C          2.6887254104       -2.4298106426       -0.7582626481
 H          1.6961030266        5.0293779435       -0.4172414787
 H          3.3262433458        4.5045940001       -0.8402845527
 H          3.0853484159        6.0546954972       -0.0225014160
 H          3.9093106909        4.3176213097        1.5734797920
 H          2.2870253579        4.8737818675        2.0155411374
 H          0.0787574768        4.3124650517        2.1230672554
 H         -2.0050504615        3.0952283615        2.5945599606
 H         -2.1602710150        0.6784545963        2.2738238571
 H         -0.2236110950       -0.6230696341        1.4806111923
 H          5.6093133976        3.2816308559        0.0544364303
 H          7.5087944575        2.0193489459       -0.8737572560
 H          7.3826824223       -0.4087105193       -1.1664815045
 H          5.3447435202       -1.6563688698       -0.5748248323
 H          1.8550645364       -1.5706430092        2.4108352734
 H          0.6925730885       -3.7727760999        2.2598486765
 H         -0.6319391292       -3.7739286380       -2.2633814631
 H         -1.8251326516       -1.5882039454       -2.4119258397
 H         -5.3126221899       -1.7340092590        0.5757426455
 H         -7.3691931085       -0.5209994889        1.1741621138
 H         -7.5351340523        1.9054383861        0.8878923526
 H         -5.6589061337        3.2001337564       -0.0431840561
 H          0.2363575335       -0.6036647200       -1.4832044068
 H          2.1495783808        0.7318812752       -2.2768431887
 H          1.9506047993        3.1450787953       -2.6009431745
 H         -0.1542613430        4.3254777362       -2.1279690954
 H         -2.3728178637        4.8505481068       -2.0106471178
 H         -3.9829106352        4.2656182158       -1.5615781191
 H         -1.7713032023        5.0121836878        0.4177967423
 H         -3.3875648557        4.4542732978        0.8500206201
 H         -3.1829411368        6.0113617837        0.0361140863
 H         -3.1901168337       -2.0874124812        1.6095829533
 H         -2.0005977187       -4.2719282917        1.7239420425
 H          2.0682031163       -4.2468177033       -1.7281286419
 H          3.2270946006       -2.0464007237       -1.6112003241
