85
 energy: -134.718985155849 gnorm: 0.000077520248 xtb: 6.7.1 (edcfbbe)
C            9.79022388277287       -1.44890318040566       -0.68154107938600
C            8.88424774367714       -0.87787815833547       -1.77182547605234
N            7.75666170586245       -0.18242554895870       -1.21373365474184
C            7.69307845646827        1.14945608859222       -0.88158556285444
C            8.64044108659770        2.14764238805236       -1.07359086845326
C            8.34623018069415        3.42148113072062       -0.63582822498115
C            7.13456541659444        3.71189541590840       -0.00623765815362
C            6.18082097038347        2.73880506347685        0.19059816134776
C            6.44207639620443        1.44297563937591       -0.25435705037704
C            5.75526679616546        0.20309418960380       -0.22988582268886
C            6.58971122856432       -0.76114301618893       -0.78643416239617
C            5.93990852762504       -2.01992065608510       -0.69355899914977
C            6.25062466764408       -3.32367215525786       -1.07139248301566
C            5.32779856543810       -4.32054229405491       -0.83870176593259
C            4.09386685264444       -4.03582970040915       -0.25595887688657
C            3.76058660612502       -2.75381720859278        0.13474669354600
C            4.69302656965321       -1.74441247307160       -0.05670998804628
N            4.59281297346076       -0.39294983366781        0.22658130705299
C            3.51581806696667        0.26729101898711        0.80890821542689
C            3.07426906379698        1.47437981047060        0.26235276652188
C            2.02438042145913        2.15398279088088        0.84726493778247
C            1.41330733693558        1.62881205954020        1.97054440959925
S            0.03132879001347        2.49480618629570        2.71681962846195
O            0.05937900580067        2.26930264739137        4.13819869226493
O            0.02801461623110        3.85054995902292        2.23365222538124
C           -1.38880186209278        1.63782633837263        2.03430733662156
C           -2.00452671173233        0.64298055393680        2.77003042457036
C           -3.09239668903111       -0.02505186007893        2.24219168788399
C           -3.55523629767843        0.30037323625294        0.96586270961125
N           -4.66270023700580       -0.34413694534438        0.42442603652179
C           -4.92202927354095       -1.70403733066733        0.42183758381273
C           -4.14722917117288       -2.74702215590827        0.90857946922739
C           -4.61987949904649       -4.03657106027629        0.76417403228389
C           -5.83748664147263       -4.29860409538968        0.13799574269767
C           -6.60168975327892       -3.27788806106373       -0.38509566591200
C           -6.14761204133529       -1.96744775854453       -0.25981910571753
C           -6.61672159183023       -0.69348956629766       -0.67499125675614
C           -5.70164914708110        0.26692228192028       -0.25535214370393
C           -6.21448622713029        1.54175084593396       -0.60379150010412
C           -5.81427407722257        2.86478828666410       -0.41721362086966
C           -6.61462466568675        3.87401600550060       -0.90321093622384
C           -7.80859084904924        3.59382981095637       -1.57011776766749
C           -8.23907294214257        2.29747665255123       -1.75724374209166
C           -7.44793147004271        1.26358421103767       -1.27153988465706
N           -7.66491763927982       -0.09236728653538       -1.32254450278611
C           -8.83647496034463       -0.75876948278563       -1.82250585990883
C           -9.87697192683037       -0.96922854584892       -0.72308273312753
C           -2.91685160283705        1.30241554117985        0.23085464344130
C           -1.83580935128242        1.97134782759573        0.76892764673318
C            1.83441620813730        0.43173311528269        2.51911304251352
C            2.88952816628380       -0.24994260555378        1.94492263238015
H           10.63060635651489       -1.97407766842778       -1.12757411363833
H            9.23262475433428       -2.14343097460912       -0.05735517498541
H           10.17029583436416       -0.64774558955916       -0.05193086016118
H            9.44558446716037       -0.18268766695385       -2.40138511132594
H            8.50690102906991       -1.68487156249647       -2.40639002569318
H            9.58892400428650        1.93583453761477       -1.54423471401130
H            9.07103649016978        4.21009509059050       -0.77340710392124
H            6.94753869589750        4.71897635618871        0.33513585566587
H            5.25369838536172        2.97007727249211        0.69320883356258
H            7.19619527695604       -3.54965957603570       -1.54132117190885
H            5.55529004216976       -5.33730234135581       -1.12231149712321
H            3.38243225814520       -4.83467169115379       -0.10906322075269
H            2.79246482743870       -2.54527025184802        0.56404326695283
H            3.55760377525938        1.86132711757959       -0.62148433594510
H            1.67417083664503        3.09662626206242        0.45712010615656
H           -1.64053111045883        0.43116891530179        3.76306346533933
H           -3.60810265919177       -0.77458177972978        2.82211710825858
H           -3.19226764804173       -2.56156593314000        1.37619163978248
H           -4.03286820580482       -4.86004681311368        1.14254978856470
H           -6.17775164763394       -5.31982679303296        0.05249845520289
H           -7.53419243653889       -3.49146123189429       -0.88593292404507
H           -4.90114842731972        3.09267104737776        0.11185797669316
H           -6.31907815838903        4.90309598810596       -0.76395410215315
H           -8.41117042339012        4.41099891789973       -1.93798391017145
H           -9.17315227844160        2.09811677707252       -2.26097126199855
H           -9.26028852273905       -0.15838984819327       -2.63158067847514
H           -8.52924919829473       -1.72299803009659       -2.23745345185554
H           -9.45622620830910       -1.56946166885297        0.08040845085969
H          -10.74920620996014       -1.47930586820413       -1.12309733937570
H          -10.18743332038200       -0.01139501505445       -0.31210324112922
H           -3.27480831446009        1.53896799933270       -0.75931567099021
H           -1.33808684275476        2.76073722953071        0.22825132410941
H            1.35041114797089        0.06654780132513        3.41108851746157
H            3.25535675635118       -1.16395512489400        2.38627648799773
