85
 energy: -134.644851918118 gnorm: 0.000195267785 xtb: 6.7.1 (edcfbbe)
C            2.57642129703236        5.02010991832157       -0.01844735338308
C            2.74029220786420        4.28805062974691        1.31171580756380
N            2.26520985954122        2.93297513560053        1.24186804325447
C            1.00680596918524        2.48177451200145        1.56727329318400
C           -0.09334098424654        3.19930468908140        2.01495039832681
C           -1.26286181024023        2.51140311955221        2.27176348993980
C           -1.34976280589309        1.13300071683850        2.08729334862015
C           -0.26600721979465        0.40021697822632        1.64909259081347
C            0.92747189847408        1.06631273079276        1.38541228865276
C            2.21584886404159        0.69253534848898        0.92298360625512
C            2.99034766615039        1.85100155563633        0.82330985611579
C            4.25309356324458        1.49097714207567        0.28694279382033
C            5.42266070925851        2.17014373828911       -0.04544685443537
C            6.48669552590417        1.45233350284807       -0.54960431078428
C            6.41096642916998        0.06969023492427       -0.71493078034613
C            5.26326377055345       -0.63135622153510       -0.39859827479712
C            4.17468940598905        0.07894755960291        0.08499128280998
N            2.93607884067062       -0.38856743572530        0.47893049823627
C            2.44815522308697       -1.69888933673283        0.41404886178668
C            1.80176457257410       -2.23649376790289        1.53157673339785
C            1.17810387749853       -3.46075201012715        1.44163813472356
C            1.20796693301006       -4.16402581417897        0.24393400502054
S           -0.06703730681618       -5.38871142471512       -0.03860626585157
O            0.21112384759837       -6.11525111582195       -1.24974638172297
O           -0.34229421991319       -6.13295396288077        1.16232815559581
C           -1.31643381960998       -4.14690916600828       -0.29923278859702
C           -1.24765817230757       -3.40078701989418       -1.47569707179699
C           -1.82271006562950       -2.15683355641114       -1.53132243169598
C           -2.48323554276485       -1.63369391956985       -0.40508928955620
N           -2.91857076634912       -0.31473683739640       -0.43417059495813
C           -4.15860436371597        0.18566907910299        0.00185248335758
C           -5.23323193074542       -0.50155146222487        0.50214172313754
C           -6.38161405884927        0.22673789321516        0.85250484701372
C           -6.42921699293826        1.60404796045459        0.69869069112848
C           -5.36261097125100        2.31020999794835        0.17221882999047
C           -4.20858824817958        1.60480798470262       -0.20550485981731
C           -2.98033681837169        1.93831901404302       -0.78776300565072
C           -2.19587720065747        0.73391608095130       -0.90440401208353
C           -0.92510349132989        1.08898570389307       -1.39578568370217
C            0.26726030793068        0.40573420822106       -1.65717123516632
C            1.35742568352149        1.13272847504492       -2.12452222274559
C            1.28041154787758        2.49375718279833       -2.33626133055447
C            0.09711619746308        3.20470486957778       -2.07009280312274
C           -0.98546071366890        2.50269826614497       -1.59968990925859
N           -2.24885386313405        2.98186447792521       -1.25101340112634
C           -2.68719641256221        4.34592132000010       -1.35273198168195
C           -2.35311210845698        5.14949016080344       -0.09727318506520
C           -2.61976983380343       -2.42372777513059        0.74688091821132
C           -2.02140408952209       -3.66045387955434        0.80036753766774
C            1.91038353176055       -3.66825373426744       -0.84695078459366
C            2.53850379501605       -2.44285846366905       -0.76341434923097
H            3.13555231267123        4.50801146351561       -0.79712639458827
H            2.94212860452851        6.03999666965670        0.06709497967832
H            1.52870468787430        5.04150009453393       -0.30672071371536
H            3.79659092267622        4.26311852762945        1.59477021680613
H            2.18857846727364        4.80969167410083        2.09845305430604
H           -0.04320744814481        4.26783902583470        2.16370555509068
H           -2.13052937057336        3.04924264361500        2.62434339125100
H           -2.28434852539803        0.63539058072239        2.29918429533821
H           -0.34233957578868       -0.66678103280445        1.50185486247576
H            5.49640141264360        3.23906735053803        0.09008894599742
H            7.39941891903499        1.96500432860589       -0.81413984408120
H            7.26849289937930       -0.46355345214179       -1.09663391640817
H            5.21828215603141       -1.70334631758686       -0.51535330746468
H            1.77976801169210       -1.66906163010453        2.44979013682135
H            0.64518290503680       -3.88394898311130        2.27839729988129
H           -0.72361773936780       -3.81759288327054       -2.32113222328083
H           -1.77705627094668       -1.56257477225370       -2.43131791957206
H           -5.21518388024155       -1.57395455927489        0.61625191835920
H           -7.23577898614483       -0.30028547456460        1.24703116736893
H           -7.32272165458239        2.13642564981921        0.98994884779186
H           -5.41428708685997        3.38176545564831        0.05445399302945
H            0.33879430126914       -0.65813943694498       -1.49507851488456
H            2.28478205011043        0.61891829146799       -2.33054977604888
H            2.13887245982190        3.02874860697845       -2.71209263175496
H            0.05713677489619        4.26978014899021       -2.24016849541011
H           -2.20885471414804        4.79934285146139       -2.22587352933125
H           -3.76821639989145        4.34182317519436       -1.51556482127214
H           -1.27998715782642        5.14650250132157        0.07457910583651
H           -2.84100726432146        4.70936871406370        0.76827659939440
H           -2.69132457242945        6.17602263501240       -0.21042353346347
H           -3.13235330699726       -2.02647702959535        1.60949471088311
H           -2.06158181891717       -4.26644820824713        1.69168738349248
H            1.92610995825746       -4.24782020280262       -1.75643332628417
H            3.05342870893046       -2.03142497976129       -1.61842078483399
