85
 energy: -134.644840941936 gnorm: 0.000050366417 xtb: 6.7.1 (edcfbbe)
C            2.51936968884304        5.06071322202475       -0.08403053636228
C            2.71297325271548        4.33377376111615        1.24494630095210
N            2.25788281346786        2.97138424837198        1.18426883311017
C            1.01412681207161        2.49985174743805        1.53609872810337
C           -0.08867281944205        3.19947111910849        2.00514347427788
C           -1.24060633339206        2.49228950099681        2.28766086208977
C           -1.30804986794698        1.11220620239953        2.10748465284253
C           -0.22142946176892        0.39707907462471        1.64769368072343
C            0.95455400072209        1.08297994215431        1.35763918339720
C            2.23889434991313        0.73012336342278        0.86824981125155
C            2.99211949840719        1.90105689806651        0.75183166627866
C            4.24923407893430        1.56111225915967        0.18967117835937
C            5.40096176800823        2.25856508410318       -0.16646567072128
C            6.46576660678244        1.55745999636784       -0.69204832549157
C            6.40860917325807        0.17373032851122       -0.85596376557679
C            5.27880702186978       -0.54527595742567       -0.51639893121912
C            4.18935820935536        0.14790502055967       -0.01051661620531
N            2.96683674151844       -0.33924728275223        0.40908696630015
C            2.49914088480337       -1.65741307200795        0.35396990488536
C            1.88841307291881       -2.20703222199810        1.48564623409241
C            1.28416380301065       -3.44181489262025        1.40863381748924
C            1.29804326759193       -4.14324781465646        0.20950257057460
S            0.03894340623362       -5.39000668469068       -0.04433674947045
O            0.30101558973667       -6.11027214072956       -1.26280049735921
O           -0.19429538575838       -6.14036121697709        1.16172333957023
C           -1.23912692010516       -4.17131920481471       -0.27289650834348
C           -1.21252567085119       -3.42141866513345       -1.44859798026718
C           -1.81620316646904       -2.19045895467804       -1.48853530958034
C           -2.46383626136765       -1.68476606698769       -0.34701829954944
N           -2.93217017677952       -0.37692094444059       -0.36423014370675
C           -4.17545283886435        0.09125783336540        0.09755506677176
C           -5.22191615005412       -0.62368982775271        0.61836753796597
C           -6.38139542410643        0.07457968442493        0.99215152652998
C           -6.46749413717474        1.45027910040239        0.84071778255524
C           -5.42993187379599        2.18400615496072        0.29430410804538
C           -4.26584757520712        1.50878351215683       -0.10677069962236
C           -3.05826892824154        1.87410066713035       -0.71283851303285
C           -2.24629886197746        0.69015479813893       -0.84782320194835
C           -0.99531663837938        1.07778273705982       -1.36482421551025
C            0.20788345211455        0.42480445866372       -1.65273944333633
C            1.26995164076383        1.17971283968972       -2.14009319965795
C            1.15510082372605        2.53911558264202       -2.34541485936091
C           -0.03948934624531        3.21997235374293       -2.05253774524242
C           -1.09499347584628        2.49003450326843       -1.56326257770525
N           -2.36274230551332        2.93657024246041       -1.18837583219314
C           -2.83747804112193        4.28939041246799       -1.27611786179836
C           -2.51087461009101        5.09282695784206       -0.01859957708945
C           -2.55629264746488       -2.47932139654993        0.80614091542495
C           -1.92940785144840       -3.70244994134420        0.84346323611687
C            1.96548757080255       -3.63407077125622       -0.89713090711613
C            2.57413671527290       -2.39813715418986       -0.82661917459248
H            1.46793460886953        5.06280847320723       -0.35923232181257
H            3.07815617688402        4.55771736241284       -0.86887947093251
H            2.86791431102826        6.08706781795995       -0.00429319326836
H            3.77345073836561        4.32577325549340        1.51324354548754
H            2.16432221708943        4.84829594179082        2.03840796357645
H           -0.05374688162089        4.26907756733817        2.15073549164001
H           -2.10949095849408        3.01623231968058        2.65760667972289
H           -2.22914519262931        0.59909921559945        2.34042713192964
H           -0.28266330839684       -0.67135849768890        1.50386240928002
H            5.46060376894679        3.32854634376276       -0.03236802038699
H            7.36472398095817        2.08440880414688       -0.97500864151291
H            7.26655079635796       -0.34597519425561       -1.25500193153829
H            5.24817421286109       -1.61787175482707       -0.63229627064357
H            1.87826453738430       -1.64089598249141        2.40487240135490
H            0.77865329442366       -3.87526311614494        2.25707463978218
H           -0.69820703741931       -3.82474495377667       -2.30645298079030
H           -1.80361816655458       -1.59353624454405       -2.38784581554550
H           -5.17397546410541       -1.69536525673427        0.73072342657885
H           -7.21379028290112       -0.47443042522422        1.40291155991027
H           -7.36851976479862        1.95928259427783        1.15006382272524
H           -5.51154333592515        3.25391959574489        0.17852228265740
H            0.30905457368956       -0.63737254544513       -1.49531307159825
H            2.20511231105290        0.68940272697067       -2.36706529091786
H            1.99209390550186        3.09621368805916       -2.73709833233409
H           -0.10899260690308        4.28441951121844       -2.21721276805336
H           -2.38052947899054        4.76074289164648       -2.15109505776795
H           -3.91980437736344        4.25836939553913       -1.42752722785682
H           -1.43635174923007        5.11522992262812        0.14273339095205
H           -2.97934501864465        4.63517024331809        0.84859936655118
H           -2.87565534449790        6.11131402953888       -0.12136952153172
H           -3.05830913444088       -2.09505276889016        1.68079100434609
H           -1.93603659741867       -4.31089121347284        1.73399519675277
H            1.96958720759330       -4.21237513791948       -1.80754160857402
H            3.06152631004082       -1.97664881346885       -1.69282483917798
