  86
  -145.054875822700       0.272154455027378      !
 O         -0.1054517444        4.1519730774        0.0897062790
 S         -0.0712671618        3.2313696755        1.2134107816
 O         -0.0674780806        3.8524075705        2.5215697416
 C         -1.4481108100        2.1200389157        1.0832757774
 C         -2.6659415521        2.5300707002        1.6274915039
 C         -3.7977503148        1.7710521072        1.4514313968
 C         -3.7179960860        0.5968651497        0.6956748070
 N         -4.8773264717       -0.1764617743        0.4597907286
 C         -5.9497383679        0.3723346436       -0.2194739309
 C         -5.9050360788        1.6469706109       -0.7918687749
 C         -7.0039948755        2.1653016117       -1.4408863560
 C         -8.1831365929        1.4241830402       -1.5461725196
 C         -8.2394286251        0.1481528068       -1.0204417923
 C         -7.1375723548       -0.3890866735       -0.3716447291
 O         -7.2356012417       -1.6640984376        0.0915566059
 C         -6.1547228316       -2.2113325964        0.7087824033
 C         -6.2660077247       -3.5223005768        1.1522462379
 C         -5.2146791945       -4.1246402335        1.8134459388
 C         -4.0455784195       -3.4024900481        2.0564297302
 C         -3.9234608975       -2.0983921344        1.6257810519
 C         -4.9582670334       -1.4793675053        0.9214390885
 C         -2.4883938519        0.1781037205        0.1790652726
 C         -1.3348105189        0.9163762495        0.3921837677
 C         -0.0336846151        0.3699202387       -0.1392010489
 C          0.0977401187        0.5948462322       -1.6410437418
 C          0.1947044312        1.7929722657       -2.3100244210
 C          0.3797957939        1.7602362196       -3.6880597911
 C          0.4752942620        0.5506752668       -4.3651791943
 C          0.3798875294       -0.6544339974       -3.6915747515
 C          0.1851075702       -0.6347447345       -2.3168871720
 C          0.0614712896       -1.7088814184       -1.3529776639
 C          0.0375738777       -3.0893498404       -1.5082100462
 C         -0.0993020295       -3.8828298883       -0.3821599978
 C         -0.2051651480       -3.3205512806        0.8827657689
 C         -0.1834031233       -1.9392221546        1.0466132933
 C         -0.0547163192       -1.1460357429       -0.0699715255
 C          1.2413579642        0.9185242712        0.4559282338
 C          2.4076420218        0.1901790424        0.2779855217
 C          3.6483795606        0.7112255041        0.6433161710
 N          4.8220756081       -0.0006666507        0.3095002764
 C          5.7146439399       -0.3990153995        1.2899682091
 C          5.4485654755       -0.2381069503        2.6510549063
 C          6.3710710004       -0.6309787859        3.5991657700
 C          7.5803314331       -1.2021608267        3.2156784072
 C          7.8495344715       -1.4022995738        1.8735443846
 C          6.9276838489       -1.0171767979        0.9136748852
 O          7.2323160422       -1.2702631978       -0.3911090742
 C          6.3284403513       -0.9066057350       -1.3446806051
 C          6.6521837095       -1.1840622551       -2.6644146146
 C          5.7945418038       -0.8148031845       -3.6841046916
 C          4.6162599827       -0.1424939136       -3.3822315076
 C          4.2857866505        0.1431419243       -2.0718415338
 C          5.1179680274       -0.2534538124       -1.0243869563
 C          3.7286995063        1.9603051092        1.2715258160
 C          2.5728638972        2.6723274171        1.4824402791
 C          1.3440208643        2.1733017777        1.0536935190
 H         -2.6835691276        3.4513989116        2.1862277542
 H         -4.7419322255        2.0732443717        1.8780040507
 H         -4.9943224321        2.2199896385       -0.7266046851
 H         -6.9475966585        3.1513208245       -1.8740728780
 H         -9.0417230027        1.8392226334       -2.0483029894
 H         -9.1262752088       -0.4592276569       -1.1055579786
 H         -7.1918384648       -4.0435918306        0.9681693444
 H         -5.3038854723       -5.1443970380        2.1512952042
 H         -3.2288165871       -3.8618896442        2.5896373127
 H         -3.0217601552       -1.5470433117        1.8329453868
 H         -2.4494255338       -0.7312507577       -0.4006689890
 H          0.1310804542        2.7301306191       -1.7773861763
 H          0.4552298459        2.6870098314       -4.2366941471
 H          0.6268736069        0.5527683835       -5.4350382499
 H          0.4596702321       -1.5912946952       -4.2227617345
 H          0.1216150137       -3.5343604201       -2.4883177778
 H         -0.1221457452       -4.9576665963       -0.4871090335
 H         -0.3042584154       -3.9604129786        1.7465236971
 H         -0.2653349698       -1.4977481507        2.0301089706
 H          2.3691504278       -0.7871564215       -0.1786529804
 H          4.5078669309        0.1929872190        2.9541107206
 H          6.1465599802       -0.4938355575        4.6452720001
 H          8.3015009127       -1.5004483521        3.9592097322
 H          8.7675896224       -1.8618227151        1.5440389626
 H          7.5852198063       -1.6856691323       -2.8653937638
 H          6.0494441436       -1.0376035398       -4.7076486527
 H          3.9478701003        0.1681442617       -4.1697389903
 H          3.3780550802        0.6832272414       -1.8607890521
 H          4.6895426145        2.3606087790        1.5558729194
 H          2.5859904601        3.6424381735        1.9520253717
  86
  -145.054782289300       0.246507690823018      !
 O         -0.0340288264        4.1229796602       -0.8215647941
 S         -0.0384809533        3.4299121002        0.4541364684
 O         -0.0575203902        4.2903705883        1.6187443339
 C         -1.4269932601        2.3254375381        0.5202848701
 C         -2.6709405389        2.8831076821        0.8164342841
 C         -3.8072961549        2.1107465556        0.7897312113
 C         -3.6924270757        0.7496103077        0.4858162324
 N         -4.8438360492       -0.0602588360        0.3647445436
 C         -5.6963053438       -0.2349829348        1.4348609675
 C         -5.4270884767        0.2820192073        2.7069621180
 C         -6.3185189038        0.1064038630        3.7399772567
 C         -7.5107556026       -0.6020029969        3.5405102009
 C         -7.7811927397       -1.1558126216        2.3058661170
 C         -6.8885588528       -0.9940757122        1.2556009098
 O         -7.1813191635       -1.5916514144        0.0729210831
 C         -6.3141929842       -1.4459201337       -0.9611160099
 C         -6.6288822740       -2.0735121229       -2.1601851448
 C         -5.8043186279       -1.9329139153       -3.2564661034
 C         -4.6594676993       -1.1327840519       -3.1665125822
 C         -4.3358434667       -0.5010554664       -1.9863676665
 C         -5.1320449487       -0.6607188770       -0.8479327761
 C         -2.4368806485        0.1870734216        0.2459109748
 C         -1.2910792751        0.9662921560        0.2434378012
 C          0.0060779382        0.3262712588       -0.1843966603
 C         -0.0158041352        0.2636411540       -1.7095235228
 C         -0.0459838769        1.3117372750       -2.6000477596
 C         -0.0803474500        1.0160823786       -3.9588330989
 C         -0.0865369762       -0.3009245716       -4.4015312083
 C         -0.0566700335       -1.3548796353       -3.5053813727
 C         -0.0199251469       -1.0724114409       -2.1462922609
 C          0.0122978680       -1.9432431018       -0.9900918042
 C          0.0281347669       -3.3282048909       -0.8820427952
 C          0.0581653307       -3.8960596322        0.3801909092
 C          0.0720131679       -3.1057762296        1.5215040544
 C          0.0568328952       -1.7179109665        1.4215607005
 C          0.0275870453       -1.1483448864        0.1694588901
 C          1.2836220568        1.0023419524        0.2436586067
 C          2.4512693074        0.2540019730        0.2566326666
 C          3.6830028474        0.8439263334        0.5440514623
 N          4.8579874057        0.0620382472        0.4649169261
 C          5.6466817439       -0.1474824456        1.5863320816
 C          5.2867982716        0.3254226433        2.8473855364
 C          6.1027818869        0.1053459344        3.9409936040
 C          7.2902005366       -0.5982404101        3.8036279708
 C          7.6505146757       -1.1017142325        2.5651516234
 C          6.8377536117       -0.8886057645        1.4644726215
 O          7.2326117523       -1.4346427361        0.2763646576
 C          6.4309475996       -1.2459982544       -0.8132092805
 C          6.8421973828       -1.8146881152       -2.0079168905
 C          6.0889918439       -1.6419110264       -3.1562422673
 C          4.9295938731       -0.8830675493       -3.1092195110
 C          4.5124254525       -0.3092115915       -1.9223194507
 C          5.2422349313       -0.4942163608       -0.7491662719
 C          3.7528122623        2.1996306997        0.8738055690
 C          2.5961081321        2.9440655067        0.8783556292
 C          1.3771199630        2.3583915656        0.5415542061
 H         -2.7109431634        3.9367683255        1.0391427166
 H         -4.7788950296        2.5422824940        0.9739741476
 H         -4.5051137686        0.8171091396        2.8690001518
 H         -6.0942399235        0.5154784284        4.7121053961
 H         -8.2079984226       -0.7265683440        4.3526234037
 H         -8.6782121409       -1.7273492076        2.1281130519
 H         -7.5313629275       -2.6620925447       -2.2036559626
 H         -6.0494786408       -2.4252421341       -4.1833472298
 H         -4.0232532627       -1.0005711117       -4.0270140341
 H         -3.4613283318        0.1266345727       -1.9411844110
 H         -2.3731131762       -0.8703508729        0.0404904521
 H         -0.0438535636        2.3346103346       -2.2550261969
 H         -0.1041144138        1.8218147723       -4.6769903946
 H         -0.1164323684       -0.5035154376       -5.4624111220
 H         -0.0635264512       -2.3765509602       -3.8549303070
 H          0.0175724935       -3.9491399889       -1.7651219379
 H          0.0711637681       -4.9715465433        0.4807372997
 H          0.0948903864       -3.5710380047        2.4953662281
 H          0.0680069055       -1.1001131015        2.3082314066
 H          2.4212590482       -0.8000301317        0.0271763947
 H          4.3587222773        0.8617819614        2.9624591950
 H          5.8059561018        0.4847649761        4.9061781865
 H          7.9282133030       -0.7643177550        4.6566162879
 H          8.5572225481       -1.6687854691        2.4287837477
 H          7.7579056810       -2.3837449568       -2.0136723447
 H          6.4127885975       -2.0888639251       -4.0824472759
 H          4.3426648416       -0.7288678900       -4.0010312434
 H          3.6183463013        0.2919195177       -1.9046211611
 H          4.7061049197        2.6519132200        1.1003805174
 H          2.6018217516        3.9945370849        1.1190326010
  86
  -145.054333035900       0.153238504821781      !
 O          0.0036136351        4.0970323772       -0.7624754653
 S         -0.0213050455        3.4002510674        0.5111007488
 O         -0.0446884960        4.2565845737        1.6786322003
 C         -1.4209388763        2.3091117674        0.5558405090
 C         -2.6668708005        2.8841067081        0.8036889635
 C         -3.8107919242        2.1246513211        0.7495232047
 C         -3.7004791650        0.7572304631        0.4695596023
 N         -4.8570132253       -0.0394491937        0.3152079048
 C         -5.7542947593       -0.1830345754        1.3526986082
 C         -5.5238217271        0.3447395184        2.6279362486
 C         -6.4577953489        0.1997094166        3.6275146363
 C         -7.6559333000       -0.4864498047        3.3900232964
 C         -7.8900791463       -1.0499419411        2.1522024962
 C         -6.9539926932       -0.9200960324        1.1360427339
 O         -7.2120893440       -1.5270754189       -0.0501992540
 C         -6.3001822624       -1.4156170859       -1.0492134148
 C         -6.5788474691       -2.0561505827       -2.2505634026
 C         -5.7071024440       -1.9511729142       -3.3137108672
 C         -4.5502767714       -1.1730358636       -3.1889711075
 C         -4.2623792914       -0.5279783154       -2.0067973736
 C         -5.1073212697       -0.6527900142       -0.8995201113
 C         -2.4451786750        0.1779942384        0.2806136737
 C         -1.2905837255        0.9449762122        0.3001146141
 C          0.0061930059        0.2893698009       -0.1052228768
 C         -0.0278839420        0.2100818334       -1.6295324064
 C         -0.0483730905        1.2492086267       -2.5308621752
 C         -0.1122839822        0.9400455196       -3.8853314666
 C         -0.1599386681       -0.3815324872       -4.3130193553
 C         -0.1404531674       -1.4261830065       -3.4061452597
 C         -0.0714447114       -1.1304473106       -2.0509311950
 C         -0.0392560129       -1.9884319871       -0.8857588463
 C         -0.0536072740       -3.3722907626       -0.7627525216
 C         -0.0154471843       -3.9272746576        0.5048764663
 C          0.0366770002       -3.1253691162        1.6369558675
 C          0.0499578908       -1.7384012690        1.5221884267
 C          0.0116436138       -1.1813528162        0.2649435776
 C          1.2875406162        0.9628436471        0.3121370690
 C          2.4543566233        0.2116086002        0.3138727670
 C          3.6909500098        0.8028586644        0.5777889436
 N          4.8691060674        0.0302415662        0.4667297461
 C          5.7084434168       -0.1400573294        1.5574607069
 C          5.3677481593        0.3065688906        2.8337933369
 C          6.2342856862        0.1306635053        3.8956161303
 C          7.4560758314       -0.5003809781        3.7110535158
 C          7.7992240207       -0.9786876979        2.4577400308
 C          6.9345636794       -0.8120008626        1.3891899448
 O          7.3151728312       -1.3312705167        0.1846287985
 C          6.4609417077       -1.1914416024       -0.8716555346
 C          6.8575999592       -1.7392401540       -2.0814038692
 C          6.0531744458       -1.6114522914       -3.2001091445
 C          4.8571004040       -0.9163431832       -3.1094548558
 C          4.4547591048       -0.3626593202       -1.9077373333
 C          5.2360877011       -0.5057871478       -0.7624813273
 C          3.7654110421        2.1577816887        0.9086881422
 C          2.6096042842        2.9033218736        0.9294201431
 C          1.3870140467        2.3187432102        0.6049466727
 H         -2.7020732652        3.9414889509        1.0092098105
 H         -4.7831465239        2.5694745726        0.8929620511
 H         -4.5983732748        0.8639058634        2.8194069674
 H         -6.2633003561        0.6173029402        4.6028346242
 H         -8.3864301428       -0.5864664943        4.1759969811
 H         -8.7914196585       -1.6050729937        1.9466067799
 H         -7.4913420649       -2.6263658253       -2.3219306377
 H         -5.9240373377       -2.4546859845       -4.2417399656
 H         -3.8755348007       -1.0694220756       -4.0237454112
 H         -3.3770956040        0.0818871612       -1.9369133090
 H         -2.3866606615       -0.8829415817        0.0922910636
 H         -0.0181340845        2.2753970679       -2.1968434953
 H         -0.1278228489        1.7381375314       -4.6121705331
 H         -0.2133212680       -0.5943406397       -5.3710814088
 H         -0.1800182127       -2.4510972835       -3.7439957835
 H         -0.0941595957       -4.0017940457       -1.6388900194
 H         -0.0264024105       -5.0016321659        0.6171273568
 H          0.0660732635       -3.5808338648        2.6152556685
 H          0.0891549909       -1.1122292753        2.4021788336
 H          2.4180463536       -0.8435947493        0.0906736089
 H          4.4147545327        0.7877459102        2.9847390065
 H          5.9511530653        0.4876867043        4.8733699076
 H          8.1343211216       -0.6297812054        4.5389945083
 H          8.7328241808       -1.4894967287        2.2849831238
 H          7.8034881836       -2.2549335019       -2.1216070209
 H          6.3655400749       -2.0421202573       -4.1378685755
 H          4.2288692357       -0.7965651660       -3.9780954800
 H          3.5313783764        0.1902015212       -1.8586835948
 H          4.7219874759        2.6095903959        1.1218960552
 H          2.6193763950        3.9537876391        1.1697449702
  86
  -145.054090370600       0.118535014035558      !
 O         -0.1379553647        3.8101424518       -1.7932161358
 S         -0.0797678326        3.4405057854       -0.3901587059
 O         -0.0738156582        4.5526379977        0.5368182498
 C         -1.4326850124        2.3605296571       -0.0036843815
 C         -2.6691325129        2.9474954884        0.2630430808
 C         -3.7811783432        2.1701823442        0.4766105038
 C         -3.6464716013        0.7759153877        0.4474386599
 N         -4.7809014706       -0.0572572372        0.5726807712
 C         -5.5547842187       -0.0229611135        1.7137220653
 C         -5.2106234132        0.7384604789        2.8360453729
 C         -6.0239048094        0.7618369885        3.9455081969
 C         -7.2097262319        0.0165343538        3.9763968810
 C         -7.5528380192       -0.7717432037        2.8968724471
 C         -6.7392661376       -0.8118975571        1.7733196817
 O         -7.1004271395       -1.6321239184        0.7540205925
 C         -6.3080565952       -1.6885502004       -0.3465913197
 C         -6.6904131654       -2.5435631468       -1.3729031032
 C         -5.9436057252       -2.6199486850       -2.5296094933
 C         -4.8101769173       -1.8126312788       -2.6789668839
 C         -4.4208469438       -0.9563489166       -1.6731437488
 C         -5.1367127932       -0.8894809872       -0.4737180460
 C         -2.3952072967        0.1959314995        0.2356804273
 C         -1.2754668561        0.9739461048       -0.0094442497
 C          0.0056007449        0.2783652785       -0.4056923685
 C         -0.1802912146       -0.1065805241       -1.8697076775
 C         -0.3516096503        0.7284119295       -2.9497535644
 C         -0.5713537370        0.1511164723       -4.1956682401
 C         -0.6271497798       -1.2292185285       -4.3418920260
 C         -0.4569204316       -2.0689490414       -3.2550688360
 C         -0.2272973863       -1.5046383690       -2.0076537813
 C         -0.0255822426       -2.1110881526       -0.7076294836
 C          0.0551967907       -3.4408790919       -0.3140250261
 C          0.2624777575       -3.7266035681        1.0246093295
 C          0.3811189287       -2.7115392490        1.9641937827
 C          0.2998220178       -1.3777443681        1.5780014255
 C          0.1031669923       -1.0879716490        0.2471479932
 C          1.2879470434        1.0437598474       -0.1939427271
 C          2.4720902178        0.3301589931       -0.0846830319
 C          3.6847289338        0.9780319746        0.1615074997
 N          4.8695494394        0.2174626850        0.2925240554
 C          5.0054144723       -0.7014027943        1.3256033016
 C          3.9962814594       -0.9339278306        2.2580136060
 C          4.1700025716       -1.8603645929        3.2695316454
 C          5.3582466523       -2.5651231966        3.3830912750
 C          6.3838973853       -2.3276988291        2.4845674037
 C          6.2177143485       -1.4034085013        1.4656782690
 O          7.2788348299       -1.1980608619        0.6309263857
 C          7.1257086293       -0.3032957756       -0.3899134628
 C          8.2006097773       -0.1217100807       -1.2436953879
 C          8.0982412363        0.7493823234       -2.3149730760
 C          6.9080363477        1.4254712973       -2.5399025172
 C          5.8314803348        1.2536548795       -1.6906481810
 C          5.9249797027        0.4048933270       -0.5884858558
 C          3.7219173012        2.3679909890        0.2999657694
 C          2.5586498802        3.0851676212        0.1490875789
 C          1.3550026077        2.4317600822       -0.1120436091
 H         -2.7243145932        4.0238484445        0.2688282747
 H         -4.7505332814        2.6152391292        0.6388028175
 H         -4.2928416636        1.3042838861        2.8221686105
 H         -5.7424065197        1.3569479973        4.7995782326
 H         -7.8450846204        0.0473846135        4.8462501019
 H         -8.4466469641       -1.3749818769        2.9001182146
 H         -7.5826811842       -3.1334602577       -1.2360516327
 H         -6.2407231404       -3.2884339002       -3.3211143214
 H         -4.2340359036       -1.8521211394       -3.5896333019
 H         -3.5572206094       -0.3280659627       -1.8147164130
 H         -2.3152897457       -0.8803746314        0.2437769045
 H         -0.3181970046        1.8008803168       -2.8322845248
 H         -0.7048477041        0.7857787444       -5.0587836480
 H         -0.8069865176       -1.6521605160       -5.3197769872
 H         -0.5058303924       -3.1412335301       -3.3735629319
 H         -0.0386345726       -4.2358195389       -1.0385158092
 H          0.3321371825       -4.7556758672        1.3454267879
 H          0.5372001242       -2.9596953816        3.0030890541
 H          0.3872239926       -0.5846732726        2.3074377771
 H          2.4688659897       -0.7437622852       -0.1903315635
 H          3.0747919318       -0.3811664764        2.1883073219
 H          3.3707908817       -2.0258304907        3.9746852151
 H          5.4926817470       -3.2875338068        4.1720584930
 H          7.3275655597       -2.8440815983        2.5554969989
 H          9.1049473849       -0.6766760933       -1.0520012227
 H          8.9393332624        0.8898837357       -2.9746725685
 H          6.8132185305        2.0904451736       -3.3839159294
 H          4.9053921003        1.7722294076       -1.8784706016
 H          4.6566122636        2.8629316005        0.5149048020
 H          2.5404446876        4.1592506424        0.2347633289
  86
  -145.053784918200       8.579667390149318E-002 !
 O         -0.2439212540        4.1141574389       -1.1553793290
 S         -0.1431370456        3.5079154696        0.1600954564
 O         -0.1211107421        4.4404025235        1.2666563947
 C         -1.4642146008        2.3498531398        0.3879553612
 C         -2.6472726475        2.8087735486        0.9685611141
 C         -3.7227998809        1.9685431755        1.1193222424
 C         -3.6233289807        0.6502766451        0.6571155638
 N         -4.7192692097       -0.2341506026        0.7799106191
 C         -4.6049482307       -1.3802978897        1.5437262811
 C         -3.4387648241       -1.7191772904        2.2363902312
 C         -3.3690187535       -2.8797902848        2.9735792526
 C         -4.4722437880       -3.7369760465        3.0602044932
 C         -5.6474374210       -3.4065872210        2.4186121396
 C         -5.7327326633       -2.2407808922        1.6681425243
 O         -6.9242929997       -1.9497586994        1.0875225172
 C         -7.0231397178       -0.8221647819        0.3386072578
 C         -8.2444448567       -0.5438165168       -0.2594111563
 C         -8.3876519244        0.5678891314       -1.0639803105
 C         -7.2890385334        1.4052376919       -1.2961099229
 C         -6.0736962635        1.1468195974       -0.7050704131
 C         -5.9124528247        0.0485983364        0.1465942312
 C         -2.4300653222        0.1934672872        0.0909704038
 C         -1.3265819969        1.0223089904       -0.0206710819
 C         -0.0486478074        0.4461546583       -0.5863295010
 C         -0.1364665354        0.3878664590       -2.1053591053
 C         -0.2394637395        1.4368129015       -2.9893608687
 C         -0.3109233480        1.1441269882       -4.3473038204
 C         -0.2787466147       -0.1687036836       -4.7965786114
 C         -0.1753413455       -1.2243632410       -3.9064738697
 C         -0.1042546818       -0.9445717867       -2.5493514750
 C          0.0034981173       -1.8214786128       -1.3985721935
 C          0.0696650741       -3.2045872520       -1.2951798825
 C          0.1680089298       -3.7735007356       -0.0364728981
 C          0.2010460552       -2.9853589926        1.1052543363
 C          0.1355405675       -1.6000298750        1.0094713965
 C          0.0372279414       -1.0301334127       -0.2396915610
 C          1.2288826152        1.1368066651       -0.1669556864
 C          2.4080360700        0.4091708289       -0.1828714675
 C          3.6109914302        0.9710402828        0.2489164404
 N          4.7854606602        0.1840317197        0.2489067980
 C          4.8616314989       -0.9642994265        1.0267242068
 C          3.8177900034       -1.3801582481        1.8517361471
 C          3.9300349335       -2.5342279391        2.6042094716
 C          5.0895321464       -3.2925832026        2.5631782878
 C          6.1496941721       -2.8802155834        1.7742720627
 C          6.0454346064       -1.7262377282        1.0150517306
 O          7.1378794156       -1.3619730971        0.2804903929
 C          7.0460458174       -0.2350772253       -0.4862207132
 C          8.1532778322        0.1106106006       -1.2429820614
 C          8.1140974722        1.2244662339       -2.0639724992
 C          6.9545814628        1.9811859330       -2.1403262639
 C          5.8451508729        1.6445939705       -1.3876507194
 C          5.8753256595        0.5455203694       -0.5309761309
 C          3.6445053696        2.2942143159        0.7016963688
 C          2.4886571482        3.0371934770        0.6731909504
 C          1.2945389418        2.4722798475        0.2285368709
 H         -2.6796180070        3.8344111687        1.2978448806
 H         -4.6360691088        2.3086157090        1.5827913914
 H         -2.5887155299       -1.0592420669        2.1904151709
 H         -2.4563442044       -3.1244011797        3.4927509879
 H         -4.4089202822       -4.6447958186        3.6376256913
 H         -6.5226997515       -4.0329705888        2.4846825182
 H         -9.0642790261       -1.2214980320       -0.0819048478
 H         -9.3379590396        0.7826462724       -1.5245855049
 H         -7.3928737770        2.2584605701       -1.9472378046
 H         -5.2286633407        1.7873200256       -0.8994753129
 H         -2.3819491169       -0.8250169644       -0.2627559321
 H         -0.2639481388        2.4565632107       -2.6369467895
 H         -0.3926758950        1.9507349200       -5.0603047535
 H         -0.3356049531       -0.3692692577       -5.8566986796
 H         -0.1508883885       -2.2441054379       -4.2612292662
 H          0.0444062274       -3.8247846113       -2.1785634115
 H          0.2200773953       -4.8479571499        0.0600493694
 H          0.2780687132       -3.4527594591        2.0751724074
 H          0.1601009021       -0.9818372753        1.8962814084
 H          2.4094536168       -0.6129553629       -0.5295138214
 H          2.9181909962       -0.7903187233        1.9034090752
 H          3.1054445923       -2.8363586658        3.2300532741
 H          5.1761003741       -4.1924301414        3.1500696515
 H          7.0730576583       -3.4352522761        1.7343163565
 H          9.0319554876       -0.5104797231       -1.1760224934
 H          8.9798033152        1.4906139314       -2.6485253230
 H          6.9082137683        2.8382296555       -2.7928667487
 H          4.9419271257        2.2278058765       -1.4646714541
 H          4.5698074447        2.7174419713        1.0612046229
 H          2.4674088926        4.0640650270        0.9997429057
  86
  -145.053781858600       8.551934324031860E-002 !
 O         -0.0012997262        3.5837213883        2.8653890456
 S         -0.0066380361        2.1416103331        2.7371332612
 O         -0.0303225281        1.4121363120        3.9923333374
 C         -1.3890599702        1.6467732940        1.7389017117
 C         -2.6156484310        2.2573512478        1.9910601131
 C         -3.7474949773        1.8561580806        1.3216838654
 C         -3.6420909354        0.8393599373        0.3664550520
 N         -4.7933489305        0.3379049603       -0.2824321187
 C         -5.1720034164       -0.9863655987       -0.0942251020
 C         -4.4625529620       -1.8595851963        0.7291808991
 C         -4.8717357102       -3.1713024949        0.8836620806
 C         -6.0032410739       -3.6380351671        0.2332621280
 C         -6.7374810020       -2.7788221829       -0.5661735812
 C         -6.3337665087       -1.4636665635       -0.7294492176
 O         -7.1176165234       -0.6631047617       -1.5117296424
 C         -6.7261355534        0.6327390226       -1.6960531126
 C         -7.5162015384        1.4273575766       -2.5094997533
 C         -7.1570829045        2.7414738442       -2.7583032793
 C         -5.9940657099        3.2533730118       -2.2033448303
 C         -5.2007567823        2.4680962397       -1.3877867802
 C         -5.5604006942        1.1520792281       -1.1021972751
 C         -2.4010817088        0.2721531457        0.0806266247
 C         -1.2598241881        0.6554953932        0.7678215932
 C          0.0189260577       -0.1072951739        0.5128737538
 C          0.0636355369       -0.6144113688       -0.9165971129
 C          0.1974291394        0.1216849480       -2.0716471613
 C          0.2320958902       -0.5500437393       -3.2890553187
 C          0.1292331245       -1.9336933776       -3.3345722287
 C         -0.0139550686       -2.6783176171       -2.1762341106
 C         -0.0468098398       -2.0146117213       -0.9563930992
 C         -0.1803526641       -2.5044013971        0.4006684358
 C         -0.3616532994       -3.7883705027        0.8962168170
 C         -0.4680009542       -3.9621456437        2.2652078995
 C         -0.3962864486       -2.8791122727        3.1318100226
 C         -0.2232927902       -1.5871120269        2.6467993426
 C         -0.1155486148       -1.4149163696        1.2861390883
 C          1.3078956701        0.5984993565        0.8531130775
 C          2.4706656483        0.1913295436        0.2189884234
 C          3.6885996936        0.8327528321        0.4642321835
 N          4.8503099619        0.4078175754       -0.2217275455
 C          5.9289863911       -0.0869899768        0.4812549971
 C          5.9000164462       -0.2878129511        1.8656661572
 C          7.0070117581       -0.7635152345        2.5296521236
 C          8.1840876515       -1.0636091256        1.8308405334
 C          8.2271206303       -0.9076473911        0.4606371048
 C          7.1165170810       -0.4354632889       -0.2252353754
 O          7.1977387755       -0.3341963895       -1.5760958427
 C          6.1159777259        0.1166876577       -2.2598727681
 C          6.2161028518        0.2074935593       -3.6428327229
 C          5.1597384765        0.6887847525       -4.3867934375
 C          3.9895172190        1.1083009701       -3.7424588961
 C          3.8763695188        1.0287134633       -2.3725326675
 C          4.9184633002        0.5117972389       -1.5978253724
 C          3.7524013399        1.9016666272        1.3635908870
 C          2.6099584497        2.2861572712        2.0227353163
 C          1.4003121744        1.6317416995        1.7837511072
 H         -2.6484843927        3.0304686745        2.7413647155
 H         -4.7087383765        2.2955489221        1.5393294016
 H         -3.5899421096       -1.5086433883        1.2548002341
 H         -4.2988376049       -3.8266169968        1.5209328149
 H         -6.3206633588       -4.6613585404        0.3538378069
 H         -7.6329864890       -3.1039218496       -1.0708204248
 H         -8.4039495697        0.9938131174       -2.9409837730
 H         -7.7771539831        3.3562287903       -3.3906603060
 H         -5.6976668921        4.2703648050       -2.4073970224
 H         -4.2905516746        2.8666904876       -0.9695089321
 H         -2.3448528104       -0.4952177973       -0.6763270734
 H          0.2727024146        1.1992951157       -2.0326292580
 H          0.3391643494        0.0090831276       -4.2061578695
 H          0.1599119988       -2.4356859872       -4.2905287841
 H         -0.0963517415       -3.7539165878       -2.2199580338
 H         -0.4220083589       -4.6335293022        0.2266800829
 H         -0.6094644575       -4.9549977373        2.6672898142
 H         -0.4803962248       -3.0396312755        4.1961051541
 H         -0.1777539563       -0.7431052038        3.3181204877
 H          2.4500497929       -0.6339997698       -0.4757602117
 H          4.9932928548       -0.0703387465        2.4069031409
 H          6.9650729760       -0.9099211508        3.5971738676
 H          9.0487313032       -1.4285713340        2.3605153483
 H          9.1106836726       -1.1512220329       -0.1076105572
 H          7.1386289572       -0.1033376385       -4.1067083567
 H          5.2401117594        0.7538965291       -5.4596073269
 H          3.1702243296        1.5038394143       -4.3207238313
 H          2.9779689303        1.3686679425       -1.8851385153
 H          4.6903633245        2.4084399445        1.5313858233
 H          2.6110315978        3.0988797211        2.7302808120
  86
  -145.053021466500       3.824831815045363E-002 !
 O          0.0632003808        4.2301685192       -0.1457053074
 S         -0.0027434068        3.3376880116        0.9978334673
 O         -0.0592683808        3.9954460217        2.2865227770
 C         -1.3993606845        2.2569048620        0.8295133468
 C         -2.6485511886        2.7569223215        1.1955235547
 C         -3.7855625226        2.0097597115        1.0052295107
 C         -3.6650024859        0.7226266793        0.4647651046
 N         -4.8114008612       -0.0472550552        0.1663303967
 C         -5.6950805305       -0.4122256376        1.1605089647
 C         -5.4823444795       -0.1102524008        2.5099129572
 C         -6.4033562726       -0.4732922315        3.4653132927
 C         -7.5686234209       -1.1643340360        3.1067390260
 C         -7.7821648757       -1.5110140404        1.7887213192
 C         -6.8600614019       -1.1564605574        0.8132644352
 O         -7.0956053822       -1.5583561980       -0.4609057613
 C         -6.2027813956       -1.2203294858       -1.4251274154
 C         -6.4584711407       -1.6486006077       -2.7216476378
 C         -5.6060651577       -1.3041926803       -3.7494076460
 C         -4.4929824070       -0.4951309568       -3.4874174111
 C         -4.2261913384       -0.0612722417       -2.2089401369
 C         -5.0490424874       -0.4340122142       -1.1399758494
 C         -2.4060823775        0.2085279733        0.1522967472
 C         -1.2596051823        0.9696578727        0.3088497552
 C          0.0400026488        0.4213755419       -0.2312734717
 C         -0.0346972657        0.6379319067       -1.7392396448
 C         -0.0979565135        1.8311940948       -2.4213304792
 C         -0.2292921512        1.7884985091       -3.8050015881
 C         -0.3067198377        0.5747146410       -4.4765029406
 C         -0.2454053347       -0.6253737614       -3.7900371473
 C         -0.1032203931       -0.5958053653       -2.4094056099
 C         -0.0177108248       -1.6639514262       -1.4348376636
 C          0.0000962044       -3.0452069804       -1.5815387958
 C          0.0983141417       -3.8330687844       -0.4474339949
 C          0.1711816803       -3.2639195102        0.8166528321
 C          0.1508086760       -1.8817519395        0.9718659412
 C          0.0616482668       -1.0936991181       -0.1527212209
 C          1.3111669123        0.9908114616        0.3449967168
 C          2.4726680469        0.2393358961        0.2474846720
 C          3.6733042631        0.6924218132        0.7980034118
 N          4.8323823952       -0.1111494953        0.6978039749
 C          5.9444286550        0.3425559927        0.0017340306
 C          5.9458929305        1.5533651579       -0.6884110971
 C          7.0756931922        1.9778256187       -1.3626194428
 C          8.2243963814        1.2018204792       -1.3701744199
 C          8.2328156329       -0.0181448744       -0.7151685590
 C          7.1044399097       -0.4529202620       -0.0407359992
 O          7.1659447894       -1.6789115385        0.5595070981
 C          6.0475565188       -2.1340259772        1.1989232391
 C          6.1168976769       -3.3908854798        1.7770966473
 C          5.0286542367       -3.9023105868        2.4632987533
 C          3.8758379861       -3.1432459561        2.5841146162
 C          3.7986444706       -1.8866736892        2.0122638138
 C          4.8721004128       -1.3661802707        1.2922134431
 C          3.7214842252        1.9217414684        1.4596654439
 C          2.5830291305        2.6909284983        1.5229841155
 C          1.3923169808        2.2378971768        0.9571959304
 H         -2.6916105867        3.7536623272        1.6034100768
 H         -4.7605123307        2.4081876956        1.2389785775
 H         -4.5809082558        0.4084012310        2.7941747049
 H         -6.2232258794       -0.2266988961        4.4994223849
 H         -8.2884659215       -1.4373142700        3.8606860213
 H         -8.6558778065       -2.0652444570        1.4852787652
 H         -7.3385760424       -2.2473437091       -2.8941611745
 H         -5.8050834443       -1.6430136497       -4.7529651036
 H         -3.8371205697       -0.2009728540       -4.2912276149
 H         -3.3757732346        0.5757941931       -2.0304774984
 H         -2.3403197536       -0.7939596609       -0.2420512162
 H         -0.0488226351        2.7732966000       -1.8966500122
 H         -0.2761449938        2.7117082028       -4.3627053459
 H         -0.4165252227        0.5695285467       -5.5514071242
 H         -0.3107710413       -1.5660002810       -4.3165080048
 H         -0.0587670799       -3.4951945127       -2.5611699757
 H          0.1177686489       -4.9085761363       -0.5456354185
 H          0.2434778180       -3.8993751806        1.6862496972
 H          0.2022724464       -1.4352568117        1.9550055800
 H          2.4603271573       -0.7124229885       -0.2610285697
 H          5.0516338986        2.1551341120       -0.6983076900
 H          7.0535604444        2.9199871604       -1.8872390263
 H          9.1064052096        1.5364437682       -1.8919459490
 H          9.1032344959       -0.6543192035       -0.7182958097
 H          7.0355306692       -3.9468329639        1.6805495560
 H          5.0877103388       -4.8825740027        2.9081680721
 H          3.0282008061       -3.5255389357        3.1308224210
 H          2.9031723790       -1.2991225782        2.1245628836
 H          4.6451424185        2.2580400107        1.9053821226
 H          2.5753095054        3.6511008385        2.0123247303
