88
 energy: -136.902667526339 gnorm: 0.000056842594 xtb: 6.7.1 (edcfbbe)
C           12.05260826263131       -3.45392366454691       -0.48327154228398
C           11.14837861380488       -3.96444226394190       -1.39966478563579
C            9.82281403381693       -3.57486380262803       -1.36011004800928
C            9.37916681022439       -2.66211720204332       -0.40523528289357
C            7.97059939854597       -2.24467377245654       -0.36122600669830
C            6.95354745403438       -3.18647689536458       -0.54668049498951
C            5.61610379324309       -2.83816082079976       -0.50648483392295
C            5.29075095109100       -1.51257234077218       -0.28185673232770
C            6.31566187662153       -0.52868364179000       -0.09287701433477
C            7.64278856202456       -0.90893919670136       -0.13142718145339
C            5.65997199463923        0.75359574478170        0.11413394171387
C            5.90131334031537        2.10171186320770        0.34900665791334
C            4.80585170737341        2.97229780396861        0.48557686815421
C            5.08052991750292        4.39892702729310        0.73596898429334
C            6.06242983403272        5.07126170186459        0.01192799155235
C            6.31796975189170        6.40960099260736        0.24538162866889
C            5.60110608315486        7.09789342865022        1.20975006732539
C            4.62427988758775        6.43918858996070        1.93747256963624
C            4.36371775600970        5.10228519143273        1.70128836509252
C            3.46186435048867        2.56258114296015        0.39764290948946
C            3.18480394294564        1.22350998548351        0.15936193251972
C            2.09656700342011        0.27256324928275       -0.02626107361164
C            0.72529232097393        0.41047932778283       -0.02333397386670
C           -0.08961789460827       -0.71100745665286       -0.22454842443685
C           -1.54037242398145       -0.57990928576182       -0.21859941727456
C           -2.36592987573750       -1.60437068937209        0.26915246422485
C           -3.72891768517188       -1.47521726940002        0.27981594088800
C           -4.36309030550551       -0.31230093122811       -0.20758558492007
C           -5.79048961820094       -0.22886594294265       -0.17538275378607
C           -6.53791471519367        0.88830078400279       -0.58420380481096
C           -7.91841419413933        0.83334358983702       -0.49556541085274
C           -8.80993215379806        1.90840579737664       -0.87624872074374
C           -8.35896311607118        3.17702455635479       -1.26345111804908
C           -9.25478482603751        4.16467807444517       -1.61550623381631
C          -10.62033657292546        3.92255224278822       -1.59246194965563
C          -11.08269206348754        2.67252979546502       -1.20824892060972
C          -10.19482793686812        1.68069293576900       -0.85485937649317
N           -8.49844377252119       -0.31013274015971       -0.02289964681538
C           -7.78231683393258       -1.35146086374701        0.35083581018950
C           -8.45485787393925       -2.55128273820978        0.84341311168130
C           -9.84262522957830       -2.57925751509897        0.95937592362309
C          -10.47747078838009       -3.71493478522963        1.42330630214602
C           -9.73507853959370       -4.83125676279954        1.77525379825100
C           -8.35351862194282       -4.80935084422179        1.66254975920509
C           -7.71425005219388       -3.67614982938410        1.19918946651379
N           -6.47713494649436       -1.31486753724598        0.28499340264978
C           -3.53229782235121        0.71080215906597       -0.70372901452123
C           -2.16716258047432        0.57871065338481       -0.70058310638159
C            0.51269760981184       -1.96239105611693       -0.43094199744211
C            1.88313540604604       -2.12909578780736       -0.44289951949318
C            2.68269197757368       -1.01766537917558       -0.23969056184697
N            4.06051664335360       -0.88694195048793       -0.19491796366758
C            4.31445755779028        0.42962353668447        0.03745514230673
C           10.29890989736580       -2.15214638483447        0.50908977552476
C           11.62277250131666       -2.54746928157483        0.47151336393420
H           13.08753446608553       -3.76107200435343       -0.51311211447555
H           11.47887354059773       -4.66807936533752       -2.14998397597105
H            9.12661504195098       -3.96313278891772       -2.08939638895705
H            7.22211793809942       -4.22053997097030       -0.70324512195358
H            4.84814665230162       -3.58377900647341       -0.64387437123272
H            8.42145089633902       -0.17151016810587       -0.00591182410611
H            6.90226283302902        2.49321367547969        0.44938884041196
H            6.61289816936275        4.54412465498315       -0.75407527211791
H            7.07807867527032        6.91911197039487       -0.32910318249408
H            5.80272878183238        8.14290707944947        1.39325743862245
H            4.06457118304901        6.96956121367482        2.69429666780123
H            3.61230290755454        4.58952803859655        2.28440844245791
H            2.67890603618016        3.29897828739684        0.49665444117131
H            0.28349395275268        1.37755892573856        0.16236405927072
H           -1.91681114962026       -2.49828690570554        0.67744916210675
H           -4.35065890953374       -2.26481331617931        0.67456545838809
H           -6.04272241183786        1.76574999936808       -0.96181630906913
H           -7.30335177738121        3.39997932820094       -1.28246261390075
H           -8.88673174587437        5.13726346273536       -1.90982805224750
H          -11.31561891506527        4.70083472438828       -1.86918445092560
H          -12.14479902501963        2.47411851996095       -1.18563818742297
H          -10.55031196467858        0.70537118239382       -0.55849566017831
H          -10.40656277017042       -1.70132410489966        0.68343824551862
H          -11.55378460461623       -3.73304903908809        1.51205290050629
H          -10.23311389272677       -5.71857479626283        2.13758270722744
H           -7.77633517685980       -5.68003304824413        1.93726628963889
H           -6.63957705463490       -3.64439941190401        1.10434536651139
H           -3.96434405748990        1.61485272400726       -1.10452869562598
H           -1.56233418573874        1.37345006023821       -1.11314951121833
H           -0.11672636293174       -2.82002200835087       -0.61311762397909
H            2.31770494493639       -3.10252377423598       -0.61240540690525
H            9.96623704193702       -1.45858717732010        1.26780676885020
H           12.32261883108311       -2.14896393305063        1.19174128637521
