88
 energy: -136.978932388249 gnorm: 0.000072757844 xtb: 6.7.1 (edcfbbe)
C           12.05031320954614       -3.44940823611892       -0.43076257934260
C           11.62813833789043       -2.31380435071713       -1.10143265428441
C           10.30262823086978       -1.92563647946557       -1.04577679662495
C            9.37445508770156       -2.67043741247168       -0.32164505370581
C            7.96351857391903       -2.25848780295757       -0.26645754023750
C            6.94981163278353       -3.21445030205992       -0.37601368047137
C            5.61052566330862       -2.87072412298188       -0.33578357166719
C            5.28189977851347       -1.53799193879267       -0.17536486867079
C            6.30238908708544       -0.54105353374165       -0.05739095532211
C            7.63211908254997       -0.91483073684958       -0.10827814151923
C            5.64378179886879        0.74667959200259        0.09722786153032
C            5.88187462808899        2.10609878813908        0.25536207192162
C            4.78458671465392        2.97914870833814        0.36101109483723
C            5.05766045012130        4.41847027088900        0.53234059032944
C            6.02177608212040        5.05650470616260       -0.24412320426581
C            6.27598466589239        6.40594226812160       -0.08399665891414
C            5.57481368894625        7.13998969042825        0.85775682080417
C            4.61536998637535        6.51570749845931        1.63693197646461
C            4.35687729566074        5.16735681179774        1.47447548232411
C            3.44293213278084        2.56165809889507        0.31282361027764
C            3.16734137951935        1.20950137322451        0.15124194699564
C            2.08279156430612        0.24810195035766        0.03059643455304
C            0.70711417523332        0.37959455192197        0.03515717543246
C           -0.09291495078117       -0.75342461425444       -0.09641611941186
C           -1.55660326734859       -0.62839917317770       -0.09649766186366
C           -2.35553350925762       -1.54662745232576        0.58422331589117
C           -3.72852596488753       -1.42693009573662        0.57726876486949
C           -4.34966333453242       -0.38331559491776       -0.10833694576925
C           -5.81343785807619       -0.29079906045406       -0.09530143115292
C           -6.49863294800180        0.90543825301270       -0.30897598541483
C           -7.89144876919058        0.85825919711367       -0.27490413013407
C           -8.72990349123343        2.04404565782847       -0.49628604568271
C           -8.28051489797768        3.32813271014106       -0.19870844693988
C           -9.09662931221440        4.42123852150086       -0.42375242042573
C          -10.36597497132314        4.24820512549287       -0.95027606620686
C          -10.82358454271879        2.97308634151379       -1.24133629484340
C          -10.01394053045922        1.87785569178640       -1.01197195827076
N           -8.53153479985554       -0.28775190901514       -0.05658144953544
C           -7.80220336750161       -1.37766724983902        0.15359327408422
C           -8.51782310087989       -2.63148159820946        0.40979628899433
C           -9.90095987124350       -2.62895352576740        0.57622611277787
C          -10.57224245931931       -3.81212514873153        0.81736764224704
C           -9.87267640957129       -5.00620045588688        0.89398441317058
C           -8.49651871305713       -5.01448705650324        0.72906448752095
C           -7.81962718154000       -3.83451409796512        0.48837890279066
N           -6.47540094708425       -1.41996972877674        0.14792267487292
C           -3.55447748621228        0.53163846795139       -0.79537670786119
C           -2.18016218432819        0.40984313469487       -0.78679683834614
C            0.50220175433798       -2.01105492911177       -0.23474904870718
C            1.87532436614858       -2.17347823318235       -0.25225265198202
C            2.66937689301673       -1.04973279933697       -0.11918042042592
N            4.04710126838029       -0.91331619372210       -0.09928657847350
C            4.29862264258327        0.41365682560982        0.05874158214699
C            9.81021784115807       -3.81164128086205        0.34775675485189
C           11.13712307336536       -4.19566372125841        0.29505135665490
H           13.08633588404154       -3.75150644656987       -0.47353069629079
H           12.33519251599619       -1.72964507737278       -1.67266278825256
H            9.97588949828148       -1.04833953634672       -1.58527830287397
H            7.22179487851126       -4.24980032715773       -0.51832465432970
H            4.84520531955584       -3.62570795752191       -0.43075118747951
H            8.40800128101242       -0.17111576932649       -0.00407769668602
H            6.88232274555619        2.50652696783748        0.31998774635461
H            6.56034253702063        4.49268690061971       -0.99230556464802
H            7.02295213897252        6.88812115982098       -0.69803557123737
H            5.77533523618961        8.19371078636717        0.98403578692736
H            4.06794543509940        7.08195426735836        2.37666910318946
H            3.61908742830241        4.68206582223238        2.09728665324227
H            2.65819346111902        3.29981943902737        0.38206143493604
H            0.25691254669765        1.35278382935565        0.16242427431836
H           -1.89004338310586       -2.34817960133740        1.13906703294326
H           -4.34781256224689       -2.13348522960222        1.10782288276905
H           -5.97494377428724        1.82758527599925       -0.49567294385630
H           -7.30103095786762        3.47486702400430        0.23245334175009
H           -8.74176613601877        5.41339866251911       -0.18508606712463
H          -10.99845644271884        5.10547040819769       -1.12843285303506
H          -11.81497272727178        2.83472527286090       -1.64738307810814
H          -10.35528161744963        0.87809419755950       -1.23176850829697
H          -10.42914216445979       -1.69011843175806        0.51696256675925
H          -11.64484941524602       -3.80675309380494        0.94726016860799
H          -10.39990261764822       -5.93026536107954        1.08249656085464
H           -7.95233496226478       -5.94606204982034        0.78810566220282
H           -6.74936565284744       -3.82305622070762        0.35342671930474
H           -4.00955490865792        1.32887454590390       -1.36457418974890
H           -1.57863228506812        1.11346573838511       -1.34398591527560
H           -0.13058360403774       -2.87750931767760       -0.35614131045002
H            2.31241195699101       -3.15309174605268       -0.37020641555472
H            9.10632367546328       -4.38854245483758        0.93013870782589
H           11.46144126040183       -5.08010448951900        0.82423425791678
