94
 energy: -153.922562366622 gnorm: 0.000057949095 xtb: 6.7.1 (edcfbbe)
N            2.78949856922994       -3.20087947598802       -1.28127295280015
C            2.22889121428581       -2.30937364525503       -0.82635040328096
C            1.54016238123296       -1.17828097198963       -0.33684709947128
C            2.26712960370952       -0.02575356222785       -0.00194619707001
N            3.65522608897008       -0.04013346606545       -0.00463801125425
C            4.46216865133523       -0.92548150793898        0.69874123511005
C            4.10490417781753       -1.92399447161912        1.58875428406585
C            5.11901174323231       -2.64762683954528        2.18884813775300
C            6.45740719750596       -2.37393176027058        1.92283569647733
C            6.81805714290391       -1.35522376958520        1.06212803588185
C            5.81546673836080       -0.61775653237153        0.44690053807647
C            5.82453186463825        0.50072424848555       -0.45853068178692
C            6.83874054660986        1.22109783903134       -1.07499711919995
C            6.49434583868079        2.24508376993450       -1.93611052570187
C            5.16046495929023        2.54037688964581       -2.20173636520978
C            4.13499439094019        1.83421539203161       -1.60018440757986
C            4.47640740452400        0.83100369325069       -0.70924068310946
C            1.56613602059678        1.14214483299780        0.33537114654649
C            2.28065638686719        2.25792658136786        0.82306164542599
N            2.86204739228013        3.13672125135944        1.27665781907611
C            0.15898843887544        1.16714871379144        0.33377756726986
N           -0.50329418041551        2.33319366063860        0.69640732576204
C           -0.36095381742165        3.57146885116429        0.07901111213862
C            0.47719221043218        3.95091386675115       -0.95600165801219
C            0.38413567704797        5.24957381684720       -1.42254686587162
C           -0.53256669966123        6.14730184518288       -0.88428000748302
C           -1.39000193645527        5.76476336090569        0.12927823498657
C           -1.30932218362220        4.46717735646618        0.61519902354510
C           -2.04219915159798        3.74348978603677        1.61971586284153
C           -3.06249399109556        4.09364662785307        2.49289901454576
C           -3.52412113994915        3.14472387610599        3.38518562629803
C           -2.95728290749547        1.87506234762200        3.43740370860003
C           -1.93685283009490        1.50694641624567        2.57936670897284
C           -1.51333242211925        2.43661699218528        1.64445497788736
C           -0.56182888304000        0.00490827757004        0.00196176103704
N           -1.95725150758361        0.02014195466085        0.00327362531123
C           -2.76112479017621        0.89568931804522       -0.71137704603483
C           -2.40335756847482        1.88016630106264       -1.61833426009687
C           -3.41578154013954        2.60936603325732       -2.21386154018518
C           -4.75416991557501        2.35210105325637       -1.93241074928827
C           -5.11602043036238        1.34011324106730       -1.06446657461796
C           -4.11529437665392        0.59858979927512       -0.45175371510486
C           -4.12664690598690       -0.51425275137599        0.45822006499321
C           -5.14227146041033       -1.23532316155260        1.07083814728359
C           -4.80109886031111       -2.25436682859456        1.93890086730268
C           -3.46822501423487       -2.53852403379787        2.22067305332304
C           -2.44114676067120       -1.83022699306786        1.62502243210707
C           -2.77881336024775       -0.83884724932430        0.71787561366324
C            0.13278287720602       -1.17269543020417       -0.33146112060192
N           -0.55553640016561       -2.32407301590624       -0.69246174525273
C           -0.43894506879717       -3.56507089169912       -0.07520885415389
C            0.39328203570234       -3.96270713671684        0.95773788579000
C            0.27346368793839       -5.25924966339385        1.42409790682339
C           -0.66377512707483       -6.13680496481578        0.88791065552469
C           -1.51547227672935       -5.73548642764344       -0.12322863509653
C           -1.40793286335993       -4.43983960969664       -0.60909846924756
C           -2.12719811960472       -3.70032198500442       -1.61192450272010
C           -3.15727115358965       -4.02786459040522       -2.48240678396352
C           -3.60008956667359       -3.06903601075372       -3.37364566782202
C           -3.00520557442138       -1.81234678473175       -3.42776405862991
C           -1.97459338994991       -1.46688376652195       -2.57250056234912
C           -1.56974537654401       -2.40542802588338       -1.63818728434128
H            3.07058706727270       -2.13281318780692        1.81811140962854
H            4.86434396562069       -3.43717487176130        2.87967410981885
H            7.22184175410652       -2.96198916496272        2.40747237238970
H            7.85591806353510       -1.12965502742487        0.87251945903707
H            7.87289943372411        0.97856354122755       -0.88605919229286
H            7.26802369388652        2.82015064698113       -2.42166111927129
H            4.91828652029192        3.33311228721015       -2.89340329708359
H            3.10402001529198        2.05929247981219       -1.82940664514501
H            1.18448639442192        3.26326529198316       -1.39558748563547
H            1.03534546459609        5.56788927180394       -2.22264971373850
H           -0.57555820343530        7.15340801447678       -1.27291967311137
H           -2.11305116410598        6.45499210352892        0.53520370640571
H           -3.47719998408098        5.08952396658780        2.47702641903166
H           -4.32213082752665        3.39447990357205        4.06781452248490
H           -3.31425354553720        1.16089782447821        4.16403135895806
H           -1.48391013909685        0.53037641383761        2.65355745189632
H           -1.37130565235875        2.07504319694124       -1.86966513627444
H           -3.15738898486958        3.39070698973744       -2.91294222932780
H           -5.51739833707903        2.94440501725941       -2.41418179867980
H           -6.15447878102255        1.12295337618459       -0.86765297761471
H           -6.17611957419319       -0.99729588334431        0.87383109755421
H           -5.57621471231196       -2.83101673082372        2.42067610004193
H           -3.22576564906325       -3.32465212563034        2.92009466915759
H           -1.41327201726827       -2.04599346524983        1.87641305402591
H            1.11620899420323       -3.29045625686278        1.39572611341391
H            0.91969209892186       -5.59188801814935        2.22242662460195
H           -0.72727051777919       -7.14196478646844        1.27620177459684
H           -2.25434579182799       -6.40976921184210       -0.52745768788332
H           -3.59390592559068       -5.01430043696296       -2.46528555935770
H           -4.40527729654094       -3.30110740856398       -4.05408261516314
H           -3.34794378872179       -1.09057519191437       -4.15372659616890
H           -1.49995547457443       -0.50078095843046       -2.64824580446689
