94
 energy: -153.843794438925 gnorm: 0.000182386773 xtb: 6.7.1 (edcfbbe)
N            2.88512278705302       -3.17762273891910       -1.15023540636471
C            2.29384227884385       -2.26429664745343       -0.75683985724962
C            1.58081945122601       -1.15692440017256       -0.30739904576651
C            2.25007539070901        0.03117876581284        0.00624539421658
N            3.64813380304615        0.04948914004930        0.00750490182652
C            4.46441886723808       -0.76970633132187        0.76247822439905
C            4.12058209327780       -1.72592464425431        1.70646514186680
C            5.14572527275811       -2.39538446126938        2.34900835901332
C            6.47973093065228       -2.11148474839799        2.07191417423223
C            6.82763471246446       -1.13663855108094        1.15175616523547
C            5.81596706988442       -0.45587105888390        0.49355192690972
C            5.80298496188784        0.60469516731332       -0.48181222840999
C            6.79768055333365        1.30811158805398       -1.14205699490734
C            6.42600584384788        2.27425748040370       -2.06209218416168
C            5.08540917496030        2.52763763942672       -2.33688751972343
C            4.07693570892483        1.83510509101090       -1.69238547497595
C            4.44414583840998        0.88726184341185       -0.74876444301582
C            1.54857306702102        1.20087006679732        0.31809652503282
C            2.23072684494075        2.32666020724160        0.76991953267046
N            2.79682427708176        3.25480776376757        1.16544466274468
C            0.10119532185685        1.18338273336059        0.30185422371481
N           -0.59826040456698        2.33616144656930        0.68006224821668
C           -0.52068869199271        3.56178127355967        0.05430442464139
C            0.25750941598967        3.95046944088883       -1.02899721886585
C            0.12489380026644        5.24635414475959       -1.48841238333139
C           -0.76794410803881        6.13608090789607       -0.89477196733624
C           -1.55903244235603        5.74980771500679        0.17374642811278
C           -1.43995623674973        4.45546295384984        0.65435202784770
C           -2.08897680973113        3.72281178777200        1.70873076505463
C           -3.06096979372737        4.04618974401066        2.64249798406750
C           -3.44199316731589        3.08492673313116        3.56362759199185
C           -2.84608077614867        1.82660514140216        3.57730973291142
C           -1.87535370042515        1.48191154056047        2.65531036930679
C           -1.52340578308444        2.42599910210846        1.70084428376656
C           -0.56989328843007       -0.00629761919489        0.00178265256776
N           -1.97220477862769       -0.02521419864316       -0.00129807094661
C           -2.78919114034903        0.80637420852732       -0.74144875863400
C           -2.44888321625125        1.77398356893947       -1.67647910349478
C           -3.47477429731152        2.45561179773527       -2.30417898112726
C           -4.80853221807372        2.17033587567861       -2.02711696850715
C           -5.15350585396960        1.17568447419902       -1.12843171914626
C           -4.14058496504008        0.48339096355834       -0.48369364106162
C           -4.12782900865992       -0.60192091966738        0.46141862691646
C           -5.12420366801705       -1.32658839518727        1.09628168934895
C           -4.75620760820994       -2.31075136628542        1.99739243292467
C           -3.41673168923050       -2.55397678361777        2.28658213586832
C           -2.40722791141906       -1.83929663646645        1.66913650935197
C           -2.76936963293568       -0.88223698145666        0.73145363442500
C            0.13352883539781       -1.17771665094342       -0.29577500354879
N           -0.53380716755577       -2.34855824771464       -0.67654930710066
C           -0.42814734361857       -3.57111673213279       -0.04893987784446
C            0.35537985297870       -3.93886146219166        1.03782134549662
C            0.25351229122138       -5.23711572146997        1.49838398277471
C           -0.61466295840153       -6.14953226876608        0.90255609672186
C           -1.41100638820656       -5.78450270283366       -0.16948995758688
C           -1.32245801552458       -4.48816418808837       -0.65142320425271
C           -1.98551320170775       -3.77313529879443       -1.70916917416474
C           -2.94565193816122       -4.12154794386766       -2.64621228124428
C           -3.34677011980104       -3.17114174960353       -3.57003014822020
C           -2.78204231687146       -1.89852148884043       -3.58318834153577
C           -1.82379399662999       -1.52875273464469       -2.65784911327338
C           -1.45236385635415       -2.46269067231331       -1.70082307858572
H            3.08822328870948       -1.94185103528487        1.93554025321630
H            4.90426338224067       -3.15045029656080        3.08169323097163
H            7.25359140010701       -2.65608261533382        2.59112112137191
H            7.86273309362984       -0.90696429215404        0.95203458951148
H            7.83809901645525        1.10216306070709       -0.94414387129953
H            7.18635222987726        2.83605911498848       -2.58293952496167
H            4.82561600735947        3.27682425828334       -3.06933699226368
H            3.03949483235859        2.02716395213307       -1.91974047974209
H            0.94930301729479        3.26634631411040       -1.49716139643694
H            0.72476111876007        5.57421886117775       -2.32403291346794
H           -0.84307630055464        7.14182140682957       -1.27972043454022
H           -2.25604361591259        6.43984915399058        0.62369556907168
H           -3.50548129021582        5.02940610335606        2.65276891705057
H           -4.20028583632119        3.31731742329593        4.29589372620764
H           -3.14173345256977        1.10565345409021        4.32446519870555
H           -1.39620963472183        0.51573214219537        2.69214794749922
H           -1.41934772848577        1.98738367484212       -1.91943730010771
H           -3.23178399829603        3.22091378163257       -3.02580624047579
H           -5.58306082320945        2.72513209148829       -2.53454215820389
H           -6.18807874309471        0.93750820055708       -0.93587975725112
H           -6.16394468834396       -1.12114368470323        0.89423553101558
H           -5.51743184970529       -2.89054128719268        2.49695671209848
H           -3.15632134920486       -3.31238126227593        3.00941075832528
H           -1.37371865032470       -2.02012161833090        1.92152462973221
H            1.02790546568889       -3.23693329898739        1.50765858836463
H            0.85802138054337       -5.54883280395605        2.33682575593943
H           -0.66633920758731       -7.15629845445992        1.28867238286467
H           -2.08892485922656       -6.49229648904797       -0.62103557561967
H           -3.36549631980402       -5.11554154969731       -2.65705612112605
H           -4.09627942755240       -3.42312509937291       -4.30484284199870
H           -3.09245506744522       -1.18613816770720       -4.33255541453464
H           -1.36844681597095       -0.55109042553338       -2.69403838940177
