94
 energy: -153.922538021104 gnorm: 0.000043641489 xtb: 6.7.1 (edcfbbe)
N            2.97502253018975        3.13401963991142       -1.35582292495343
C            2.40061081054490        2.26154233330330       -0.88166843216532
C            1.69686016161826        1.15134424546344       -0.36638199153829
C            2.41039570287928        0.00031401812250        0.00038778437650
N            3.79883664519243        0.00046704297286        0.00057079870688
C            4.61274385895231       -0.88916025123219       -0.68863837932954
C            4.26277621440442       -1.90484787590396       -1.56198338776120
C            5.28246242735906       -2.62875408661158       -2.15216671332471
C            6.61874782959012       -2.33944488417620       -1.89186931146275
C            6.97166701571944       -1.30458268846605       -1.04736502100630
C            5.96351794241427       -0.56578493073333       -0.44282545995490
C            5.96328026725172        0.56715975453617        0.44456547651711
C            6.97111363025093        1.30616240314754        1.04938077166786
C            6.61775186408155        2.34095312557205        1.89378726937890
C            5.28133630272257        2.62999381467417        2.15371440863577
C            4.26195857346340        1.90588130032323        1.56325044021839
C            4.61237246718310        0.89026077699486        0.69000557486712
C            1.69703489618419       -1.15089050468033        0.36695009814503
C            2.40090975591454       -2.26091045394632        0.88244836489794
N            2.97537471155611       -3.13325500285696        1.35678713882168
C            0.28971572141930       -1.16015277436317        0.36590476527403
N           -0.38585948660447       -2.30676186063259        0.76399332649764
C           -1.39416644537576       -2.36853221457543        1.71748390561403
C           -1.80431977620771       -1.40462011186182        2.62318925876620
C           -2.82567240523222       -1.73365546649534        3.49585389352361
C           -3.40625166556879       -2.99814771448795        3.48645303729139
C           -2.95815667346939       -3.98027657286164        2.62365523837991
C           -1.93733943932159       -3.66959117505389        1.73621957674808
C           -1.21557241859180       -4.43301129897760        0.75327435413991
C           -1.31258459202367       -5.74419926294988        0.30869234447878
C           -0.46204809311979       -6.16856052401843       -0.69397680240919
C            0.46381105077107       -5.29911960954512       -1.26222919210796
C            0.57302223060533       -3.98745532362522       -0.83734505192762
C           -0.25858081401035       -3.56567747297162        0.18654890248586
C           -0.41800813119535       -0.00003943028892       -0.00004414390883
N           -1.81346528001958       -0.00021811251624       -0.00027017901892
C           -2.62652781632680        0.88830570868641        0.68759765840743
C           -2.27937542015622        1.90349682061423        1.56430753367051
C           -3.29954226391094        2.64003982365414        2.13719543991609
C           -4.63512057598265        2.36078780613729        1.86343970527231
C           -4.98610273056464        1.31887912434563        1.02701095944860
C           -3.97748877846498        0.56945325541310        0.43731369293897
C           -3.97720217482036       -0.57040808659750       -0.43859543481154
C           -4.98543544603071       -1.32007332864582       -1.02863943967455
C           -4.63391769424106       -2.36189816389698       -1.86494744395564
C           -3.29817915672643       -2.64083272230256       -2.13824437948613
C           -2.27838448542072       -1.90404580071569       -1.56500730695422
C           -2.62607925601551       -0.88893741848374       -0.68841683119820
C            0.28953754781448        1.16025073923153       -0.36577030986871
N           -0.38620113816947        2.30669191041906       -0.76406676263672
C           -1.39423091108926        2.36821263736641       -1.71786671681014
C           -1.80385930359660        1.40420340192074       -2.62370571110811
C           -2.82502994065229        1.73298436077600       -3.49667923511682
C           -3.40593475220352        2.99732825213599       -3.48744655920604
C           -2.95835054015766        3.97956641353607       -2.62450798472674
C           -1.93772815639801        3.66913383283848       -1.73675966278862
C           -1.21645882721065        4.43272972071221       -0.75358552926014
C           -1.31393303506306        5.74389204442975       -0.30902980478154
C           -0.46381355424241        6.16845964820419        0.69390546497116
C            0.46208517540313        5.29924686668268        1.26244227693027
C            0.57175465366172        3.98761154423179        0.83758616381822
C           -0.25942362493600        3.56563394668740       -0.18657014665822
H            3.22976876391813       -2.12587908329179       -1.78624764348726
H            5.03398242059979       -3.43066004573075       -2.83090928302382
H            7.38767395974265       -2.92824900576781       -2.36844190631685
H            8.00783736422808       -1.06781330992711       -0.86224110905559
H            8.00738284118424        1.06960352499753        0.86454099455445
H            7.38642762111699        2.92991261055242        2.37057189099434
H            5.03251020042910        3.43185209795290        2.83238664220724
H            3.22884489113234        2.12670910365334        1.78722495200677
H           -1.34021854112956       -0.43135797780418        2.66458228913967
H           -3.17228467040611       -0.99249538800619        4.20011592008006
H           -4.20438182937105       -3.21712614461773        4.17943140528443
H           -3.38346931904720       -4.97164243004325        2.64148020856788
H           -2.04268656031235       -6.41266222070303        0.73777459342490
H           -0.51771854273938       -7.18587628824331       -1.05052120427064
H            1.10942842103172       -5.65031273887528       -2.05307546883719
H            1.28756592336778       -3.32241332224369       -1.29957147835948
H           -1.24952547936183        2.11664328953992        1.80976347938093
H           -3.04939600215850        3.44468674836744        2.81242049887801
H           -5.40455557883453        2.95982510569926        2.32664963378295
H           -6.02212915459648        1.08486075247801        0.83683379561992
H           -6.02158268401351       -1.08630141414259       -0.83881766067604
H           -5.40305125453215       -2.96111885847356       -2.32842134611695
H           -3.04761122536832       -3.44542393593542       -2.81337949415083
H           -1.24839939428739       -2.11694635839808       -1.81010980280339
H           -1.33948974496247        0.43106345314097       -2.66497000396547
H           -3.17123769794422        0.99174095303224       -4.20105266031934
H           -4.20391208406891        3.21610699324301       -4.18066433957867
H           -3.38390973779442        4.97082425286218       -2.64245692531887
H           -2.04406845587145        6.41217552293264       -0.73833481449000
H           -0.51984515498370        7.18576101862786        1.05043505688786
H            1.10737170152166        5.65059930207376        2.05348785865255
H            1.28632081942942        3.32274360449234        1.30002854642600
