94
 energy: -153.843794122559 gnorm: 0.000060738423 xtb: 6.7.1 (edcfbbe)
N            2.80622675724563       -3.23823636563597       -1.18484631088714
C            2.23724022732265       -2.31472048588636       -0.78252548162450
C            1.55154802074017       -1.19445736720099       -0.32251964815147
C            2.24957659470395       -0.02502705347010       -0.00186561953110
N            3.64770427525348       -0.03942463865879       -0.00326917200647
C            4.44601739819065       -0.88067114034520        0.74656672374270
C            4.08136517499764       -1.83490303350051        1.68471523058046
C            5.09165476148275       -2.53040506215725        2.32312403750383
C            6.43151212729884       -2.27370170481431        2.04776124353725
C            6.80061357437642       -1.30101485188889        1.13359205579258
C            5.80407201463188       -0.59444335034235        0.47950040917284
C            5.81406862882309        0.47247731922314       -0.48898211639644
C            6.82366044650375        1.15919844830865       -1.14421804134522
C            6.47285243461021        2.13921632777839       -2.05776062783482
C            5.13800809396878        2.42241554651452       -2.33149651565032
C            4.11489246879819        1.74710683435724       -1.69184930412510
C            4.46164062891329        0.78574331984013       -0.75420026281395
C            1.57679902881295        1.15871960354126        0.32022737548464
C            2.28687824681058        2.26421682366428        0.77894430837603
N            2.87608114667919        3.17544931621381        1.18013825598623
C            0.12942825506533        1.17589986241322        0.30725150724920
N           -0.54109266555372        2.34303014930260        0.69362289989071
C           -0.43443055243112        3.56987772430770        0.07444160290451
C            0.35263501121434        3.94570230690520       -1.00698610039635
C            0.25156994176939        5.24705105353068       -1.45891225037835
C           -0.61940506175315        6.15473986608262       -0.85998734900423
C           -1.41988502927998        5.78149835700489        0.20615160704219
C           -1.33216237728895        4.48192578943057        0.67938694675856
C           -1.99915617900727        3.75899472318023        1.72922039479818
C           -2.96460928399024        4.09986475249191        2.66354262778648
C           -3.36948207370620        3.14265887542896        3.57867361601336
C           -2.80286890735184        1.87083051029903        3.58636582112140
C           -1.83915153076788        1.50864936020242        2.66372053969864
C           -1.46429503844594        2.44927624447573        1.71458706076572
C           -0.57054103221655        0.00457394271592        0.00091672924384
N           -1.97288436015693        0.01930218399121        0.00256075957657
C           -2.77193821050415        0.87848893442727       -0.72555990099720
C           -2.41170746810710        1.84363705253510       -1.65567667820601
C           -3.42277586775721        2.55876393627449       -2.27001708427207
C           -4.76186143797937        2.30827987768573       -1.98519488186886
C           -5.12776466057531        1.31627581616334       -1.09186464625024
C           -4.12982315322462        0.59093027473210       -0.46025143084263
C           -4.14021645138402       -0.50128982702057        0.47690766702367
C           -5.15164958735483       -1.20238681361149        1.11443528287649
C           -4.80452988612759       -2.20223344938687        2.00651503452625
C           -3.47021565723921       -2.48411330096679        2.28435421988710
C           -2.44580604054877       -1.79371874123527        1.66385125854251
C           -2.78809176065574       -0.82080294751845        0.73505588535354
C            0.10412379095249       -1.18116339153455       -0.30672923561605
N           -0.59169334204329       -2.33354229004488       -0.69268019992311
C           -0.51014557601200       -3.56301149690619       -0.07490844375899
C            0.27038363106379       -3.95666433912299        1.00491341371480
C            0.14198775451985       -5.25594198235005        1.45588778865991
C           -0.74912101737263       -6.14421561204633        0.85747356812586
C           -1.54269866626876       -5.75302755835111       -0.20738662028819
C           -1.42777942120458       -4.45521706566030       -0.67961137112484
C           -2.08022028590100       -3.71745155977728       -1.72827119152487
C           -3.05309362281075       -4.03717618482414       -2.66239008976815
C           -3.43814640803995       -3.07090682547413       -3.57655869466158
C           -2.84510527879742       -1.81117180414502       -3.58332695068744
C           -1.87350720342629       -1.47011188597395       -2.66090349974955
C           -1.51789645284099       -2.41930028284117       -1.71288306413090
H            3.04445563335453       -2.02941786739695        1.91245009195692
H            4.83393849402811       -3.28461357219486        3.05113855590436
H            7.19334540538762       -2.83806925027568        2.56363564341066
H            7.84049404356514       -1.09259361902944        0.93544726813195
H            7.85944067887301        0.93013036450742       -0.94735039865335
H            7.24509207389159        2.68845028526554       -2.57449292565939
H            4.89431257726679        3.18153061931836       -3.05924221168511
H            3.08181199398270        1.96231927377437       -1.91834728932438
H            1.02724871323609        3.24754441614389       -1.47940232061601
H            0.85916134596966        5.56501990672359       -2.29275852573295
H           -0.67015323819970        7.16420202338403       -1.23912443190495
H           -2.10023694666433        6.48552280350750        0.65992539248641
H           -3.38598947791692        5.09315034633512        2.67870927938270
H           -4.12357676111980        3.38852998116703        4.31086407618614
H           -3.11628630462570        1.15289353652184        4.32916065999515
H           -1.38246247014437        0.53149218712993        2.69607388902731
H           -1.37842304490609        2.03034658404499       -1.90472241800921
H           -3.16389027366038        3.32322421238264       -2.98699582786530
H           -5.52437432698288        2.88861732341642       -2.48214980779028
H           -6.16709429463549        1.10540944864788       -0.89333307350026
H           -6.18678240716906       -0.96703187548298        0.92146667496475
H           -5.57785985509212       -2.76387407899005        2.50820904633605
H           -3.22559443599835       -3.25369812159357        3.00086032438524
H           -1.41591670709639       -2.00461052130194        1.90756289508930
H            0.96079817465481       -3.27371755025008        1.47678367488437
H            0.74386046939337       -5.58766287203637        2.28852715351705
H           -0.82091721761054       -7.15270824870352        1.23580221016907
H           -2.23842287749836       -6.44194905097617       -0.66101910191818
H           -3.49526699930007       -5.02137108599500       -2.67818805681709
H           -4.19739869835012       -3.30030050699876       -4.30877682536825
H           -3.14378311335651       -1.08612021479817       -4.32528815796511
H           -1.39653544158297       -0.50267626725625       -2.69256356873844
