63
 energy: -98.051608495176 gnorm: 0.000114011967 xtb: 6.7.1 (edcfbbe)
C           -5.99623024770168        0.04362145674863       -1.62610638114453
C           -5.36863424883719        0.05068807153466       -0.22019199855310
C           -6.46526599961035        0.17176411559144        0.85368842013342
C           -4.62837269482884       -1.25692109524914       -0.01724631631292
C           -5.32478042862978       -2.45501417654400       -0.10087129785937
C           -4.69973558189824       -3.67959420853705        0.04189436528541
C           -3.33373375751586       -3.71933969238070        0.25443466838307
C           -2.61800771041981       -2.54416186989246        0.34282802649189
C           -3.25324106605361       -1.30341012393041        0.23239914625139
N           -2.50687541112955       -0.13825761492249        0.33948817873986
C           -1.12900497946190       -0.23811025925807        0.65433615536892
C           -0.75464816095787       -0.63427720401634        1.95777309174175
C            0.56101134210546       -0.71899442103862        2.31314153388501
C            1.56259535846654       -0.40893501072028        1.37161246995918
N            2.85789430933422       -0.39871132180115        1.73860192206006
C            3.75835024940650       -0.12333640345400        0.82857817597419
C            5.15270309187806        0.03136396969583        1.25819826539064
C            5.69088962052827       -0.80606650734687        2.23334894706774
C            7.01181718640231       -0.62452381278813        2.60077333738329
C            7.74128758806497        0.38689947895790        1.99497577507131
C            7.10294150154563        1.18003749293180        1.05205304667139
N            5.84694190667532        1.01388656772252        0.68976872216853
C            3.38805196522107        0.06277689632019       -0.54254554111837
C            4.40994562527461        0.12664440650788       -1.59397101024685
C            4.26807633224560        1.00451267836613       -2.66670628841765
C            5.26173478641191        1.03427340565010       -3.62835356488460
C            6.34845396597984        0.18414967033523       -3.49322115115740
C            6.38062168752336       -0.66880808915622       -2.39905099717609
N            5.44340054492573       -0.70258554882915       -1.47336818510046
N            2.13098393638115        0.14284016794136       -0.89769366322546
C            1.18814878079670       -0.04859142031798        0.04665331997845
C           -0.17340994366561        0.04650208630515       -0.28995829393450
C           -3.08134587610306        1.11612245984159        0.17943833597674
C           -2.30061042600269        2.26528047206331        0.33485375121816
C           -2.84468927372701        3.52207923905462        0.17541759013785
C           -4.18553536095811        3.65847698497519       -0.13453221891328
C           -4.96616011324761        2.52511140156066       -0.26084177984432
C           -4.44477230090271        1.24779412101562       -0.10366808992112
H           -6.68169031817210       -0.79130746873525       -1.74169235223433
H           -6.54560372713537        0.96249998323751       -1.81106307611797
H           -5.21499032518471       -0.04697839850725       -2.37849113149687
H           -7.15579198018892       -0.66530198521262        0.79934975294149
H           -7.03286827782576        1.08958686025043        0.72814291409812
H           -6.01361106722297        0.18067504574782        1.84401365745826
H           -6.38832951545505       -2.43824932216157       -0.28518403716896
H           -5.27238903737369       -4.59200243566325       -0.02467648756154
H           -2.82034288253791       -4.66471876346375        0.34733864829528
H           -1.54992119226437       -2.58671794020702        0.49103339339381
H           -1.53543999156527       -0.85803152317279        2.66988728117732
H            0.86324266549964       -1.00130950978780        3.30935792891882
H            5.07621160151229       -1.57492201250649        2.67269654122543
H            7.46664303398137       -1.25933018029098        3.34791781714800
H            8.77509564312673        0.56110324837406        2.25037023615673
H            7.62195948588321        1.99396080937315        0.56148410015285
H            3.39995301486234        1.64109624755547       -2.72224170142336
H            5.19101717178369        1.70745568264376       -4.47088897443154
H            7.14671223894407        0.17686343422056       -4.21920905824476
H            7.19755216189224       -1.36489225026429       -2.25570107126284
H           -0.44555495626976        0.33809662415437       -1.29253053418919
H           -1.25633389019395        2.17258177656999        0.58951169810860
H           -2.21834024493964        4.39317462886514        0.29708823848953
H           -4.62283147628993        4.63631880666673       -0.26668934600445
H           -6.01514133238728        2.64516027938644       -0.48575590496411
