63
 energy: -98.003862351233 gnorm: 0.000044016962 xtb: 6.7.1 (edcfbbe)
C           -6.36746974098585        1.29099744372363       -1.32596712461305
C           -5.81285928074800        0.38974636839655       -0.20716723698479
C           -6.96605151627699       -0.17306513706350        0.64431787664701
C           -5.06742684128730       -0.76695930102889       -0.84293891500388
C           -5.74007815742063       -1.62903152796723       -1.69777856250022
C           -5.10645996695350       -2.69107591149794       -2.31607757187550
C           -3.75747757526109       -2.90272190452212       -2.08776351860996
C           -3.06477972294623       -2.06387374631091       -1.24256371652322
C           -3.70657014386412       -0.99654123266227       -0.60367639061056
N           -2.98638441202806       -0.17798054652864        0.24512754874421
C           -1.61323426247661       -0.46974109705168        0.48585233748385
C           -1.26688477883741       -1.44304586298150        1.41110719850305
C            0.06800725398093       -1.72789040239443        1.65436402949476
C            1.07838870126935       -1.04737550184262        0.98132161165307
N            2.37517166981732       -1.26726894553100        1.21861461558674
C            3.32629249424730       -0.60660476522247        0.57269642800050
C            4.71555669882954       -0.80098541467297        0.97967301452659
C            5.15070347541267       -2.06620570467603        1.38370102871526
C            6.46488914226708       -2.21465700079348        1.78123634621910
C            7.30020308782283       -1.10627417386616        1.77734461942315
C            6.76263722282277        0.11193644862206        1.38679617664124
N            5.51242728241208        0.26257214313462        1.00446821582623
C            2.97290398209520        0.30225966324443       -0.44416838145360
C            3.98009984108532        0.91905070079055       -1.30248913573439
C            3.79145112684929        2.22288301977819       -1.77004424191440
C            4.75428758728294        2.77294041755954       -2.59291492986973
C            5.86391456936150        2.01263316171223       -2.93546906677401
C            5.94200960923975        0.71755113086008       -2.44328658419022
N            5.03064450688549        0.18575991133785       -1.65697164803871
N            1.69350320638747        0.57445839162783       -0.66488197380414
C            0.71615430413792       -0.04304900705066        0.00806455518163
C           -0.62863687490252        0.22453235610810       -0.21442911720282
C           -3.56168204824504        0.90602476216392        0.88013432137047
C           -2.78672612447637        1.69502289480750        1.73820938062031
C           -3.33042257785677        2.78533947867590        2.38132602917395
C           -4.66214514405583        3.10850805327247        2.18482623425475
C           -5.43349466765805        2.32400543815768        1.34735830321358
C           -4.91291010626642        1.22019562346654        0.68636058270731
H           -7.03249476705392        0.73344943958345       -1.97949705721778
H           -6.92150902316259        2.12824517221029       -0.91089756995575
H           -5.54772201825238        1.68401358918793       -1.92436761314707
H           -7.64331318007361       -0.76621098387342        0.03621259546991
H           -7.53565463494366        0.62940440784811        1.10462689913343
H           -6.56748938887134       -0.80780649278252        1.43355342193387
H           -6.79036730580068       -1.47213930652720       -1.89187611686492
H           -5.66037132807546       -3.34342518548064       -2.97370910723813
H           -3.24278424880718       -3.72073688918979       -2.56896599372271
H           -2.01237971888816       -2.22782726108655       -1.07137550600299
H           -2.04251616153680       -1.97506679617327        1.94054126279612
H            0.34867626109181       -2.47250229978722        2.38182782504931
H            4.45974714765054       -2.89398624617494        1.37382759291282
H            6.83642433345392       -3.18110480882667        2.09134939304242
H            8.33406498950247       -1.18227687895019        2.07578790396317
H            7.36072066571160        1.01450236753059        1.38543770143699
H            2.90845400996930        2.76891963601399       -1.47872097812695
H            4.64412567827790        3.78182482724834       -2.96475390218242
H            6.64035546116560        2.40849352421223       -3.57116665184793
H            6.77280533281284        0.07060551427274       -2.69540272018724
H           -0.90220186385530        0.96952007415849       -0.94460944625141
H           -1.75028748595411        1.44277401187103        1.89850512085706
H           -2.71376636015990        3.38110764145518        3.03738399955857
H           -5.09891616187237        3.96088309369099        2.68237657481119
H           -6.47219715084987        2.58411753495970        1.21013225207449
