63
 energy: -98.003881962788 gnorm: 0.000033096350 xtb: 6.7.1 (edcfbbe)
C           -6.34467749034192       -1.21367518069762       -1.44722474831775
C           -5.81358839844024       -0.28481492447212       -0.33965550367312
C           -6.98632036079772        0.35808430265549        0.42384349803854
C           -4.99436027757738       -1.10935957807133        0.63363196060754
C           -5.59074102657413       -2.16343780866498        1.31151189864832
C           -4.89002925452461       -2.94839450408848        2.20860358452219
C           -3.55165559353448       -2.68252508604153        2.44275530224123
C           -2.93354916120016       -1.64213982185902        1.78439701266686
C           -3.64070296579809       -0.84466118309945        0.87723805112135
N           -2.99298860993320        0.19233182883763        0.23414422706191
C           -1.62006413183804        0.43638134658346        0.52684656752692
C           -1.27523731082228        1.29156630131452        1.56421761311173
C            0.05512810646287        1.53865708851790        1.85270828825181
C            1.07380702791586        0.93487577278725        1.11189884117240
N            2.36181188308536        1.16896360300260        1.34273244635496
C            3.32612632555583        0.58838751393827        0.62041880040217
C            4.70599013284575        0.95537598523330        0.84331171736293
C            5.07546444179695        1.60310188853275        2.03269537345552
C            6.39762251235262        1.94186498671197        2.21787239953582
C            7.32201383738640        1.64003349090696        1.22306351960833
C            6.85656108070455        1.02011146169650        0.07312692653434
N            5.59575492291416        0.69558566863529       -0.11437686707154
C            2.95848491161010       -0.34302044908957       -0.37266549585624
C            3.98747891464281       -1.11521790824672       -1.09717070572789
C            4.10642339140416       -1.00238716077672       -2.48077307990381
C            5.06428993499077       -1.76944737797225       -3.11838913182714
C            5.85220679161825       -2.62581930328639       -2.36448198809833
C            5.62939985014845       -2.68411353518292       -0.99680429619274
N            4.72336805159800       -1.95251629660958       -0.37993371710596
N            1.69485424369455       -0.56958246119075       -0.64454608634473
C            0.70884116673759        0.03646122924055        0.04208469070882
C           -0.63114770630907       -0.18963800486737       -0.23010027780864
C           -3.63777961811919        1.00654639214110       -0.67631653334341
C           -2.92870160728747        2.03917659644166       -1.30087263516103
C           -3.54390887287194        2.86956180751180       -2.21187138479235
C           -4.88157069208664        2.68630533421785       -2.51805518297812
C           -5.58471209558899        1.66695855536947       -1.90278975690770
C           -4.99127665331113        0.81498956135053       -0.98185397536552
H           -6.95138722899770       -0.66101143434278       -2.15909109425765
H           -5.51121457406550       -1.66424700566668       -1.98280342772239
H           -6.95302322182571       -2.00975829475607       -1.02722163411149
H           -7.60938742508944       -0.40121751727549        0.88808558020072
H           -7.60813388047790        0.94686521063876       -0.24472465102192
H           -6.60456862025877        1.01357770426285        1.20436740237005
H           -6.63334501342139       -2.38399971223574        1.13898690419815
H           -5.38515615756582       -3.76041347434729        2.71884741647896
H           -2.98743357645242       -3.28552974197983        3.13815661632139
H           -1.89025030714662       -1.43769763488631        1.96749877696694
H           -2.05415531784726        1.76485931950463        2.14283474039580
H            0.33183065579951        2.21014947329043        2.64951444099802
H            4.31683675272896        1.81432162231915        2.76948184002120
H            6.71374071507045        2.43530159487685        3.12608543216754
H            8.36635963781773        1.88511429731095        1.33415218654755
H            7.52445047973144        0.77635063607104       -0.74374759867972
H            3.46625822779579       -0.32726974086735       -3.02595700099866
H            5.19430993663600       -1.70199327835912       -4.18924229960817
H            6.61490858254363       -3.23478984976560       -2.82451643259748
H            6.20114496691355       -3.34877769003464       -0.36189911902856
H           -0.89939731391683       -0.86287310477204       -1.02879868969965
H           -1.88638643342509        2.18415799390308       -1.06322863270218
H           -2.97830226140138        3.65992634561889       -2.68208909578141
H           -5.37450141657770        3.33099011672133       -3.22959019156714
H           -6.62706090869976        1.53705016139991       -2.15187624176167
