63
 energy: -98.051609722872 gnorm: 0.000070185311 xtb: 6.7.1 (edcfbbe)
C           -6.42193060543157        1.21570931061664       -1.31050979983593
C           -5.82132525009204        0.37722369818301       -0.16733546471503
C           -6.93493083746089       -0.12019983632345        0.77233747627815
C           -5.11768267574270       -0.82292135775246       -0.77012657476550
C           -5.84293631399740       -1.72304062210217       -1.53909857438395
C           -5.25157542457589       -2.81640354389826       -2.14357682198205
C           -3.89019670234570       -3.01264385297841       -1.99939883266643
C           -3.14628621740635       -2.13421582355974       -1.24040338713538
C           -3.74815853657151       -1.04752218052202       -0.59840717685767
N           -2.97448844835427       -0.18993095244896        0.17160329881771
C           -1.60425821765352       -0.49473248318940        0.36206937144413
C           -1.25779146773551       -1.60246384969607        1.16787850238455
C            0.05020819666162       -1.92046740718059        1.39640949810773
C            1.07240030462197       -1.13717845296188        0.82415423487212
N            2.36245187132217       -1.38939056591956        1.11551427082955
C            3.28199198310472       -0.64902078034540        0.54892454140749
C            4.67543099588565       -0.82889965079109        0.97220913319720
C            5.18076453547815       -2.10259000644046        1.22510837538652
C            6.50294447866702       -2.22088310067565        1.61331278223625
C            7.26597404434680       -1.07108953510698        1.74688262021730
C            6.65877138101966        0.15073259439162        1.49383940503286
N            5.40210742174295        0.27619749954174        1.11765680181028
C            2.93531859546645        0.33813094796169       -0.42921170867979
C            3.97448026992927        0.99450912866613       -1.23139090117201
C            3.87508407788536        2.34714550517035       -1.55048376409545
C            4.88513976519613        2.92211464725063       -2.30036807099020
C            5.94517533262899        2.12981835252875       -2.71327848468040
C            5.93520215266919        0.78741781866371       -2.36172656322443
N            4.98222160756092        0.22937904868292       -1.64282858513637
N            1.68586099714141        0.65227096422690       -0.65920794519719
C            0.72553799087321       -0.04279079304520       -0.01694931406174
C           -0.62843084395431        0.27257647970347       -0.22542646659156
C           -3.51569603797522        0.93480375908822        0.78131335401379
C           -2.71071028254909        1.74773601426829        1.58473091053852
C           -3.22112712607605        2.87356075003111        2.19542915576903
C           -4.55211822158883        3.20748318460453        2.02365027766559
C           -5.35754610773654        2.38949778799344        1.25428033485466
C           -4.87034776429946        1.24870658940128        0.63025943909615
H           -7.12388819030842        0.62848266359750       -1.89597992633746
H           -6.94654464120922        2.08386486788958       -0.92134370612354
H           -5.62878505684734        1.56108395942462       -1.97102713718687
H           -7.64543772258668       -0.74338117463354        0.23638665133218
H           -7.47656201661068        0.71403707158399        1.20934399301696
H           -6.50235566971264       -0.70867249606713        1.57942337576101
H           -6.90273473868591       -1.56986689492792       -1.67599688622203
H           -5.84617138704596       -3.49912043379485       -2.73112336262988
H           -3.40214569241880       -3.84677038925770       -2.48102804648528
H           -2.08179216189963       -2.28643328259665       -1.15001841001088
H           -2.05368643905597       -2.18579618551043        1.60731443091098
H            0.33146230031932       -2.75186538472107        2.02344288833377
H            4.54099900629470       -2.96215952856407        1.10738805117651
H            6.93307541657547       -3.19265370738178        1.81007384427808
H            8.30187032685407       -1.11862011128592        2.04518605625226
H            7.20464466877160        1.07984112806874        1.60003434486569
H            3.02639571889347        2.91478246740178       -1.20481916299323
H            4.84757610365337        3.97038968394829       -2.56065575914752
H            6.75498672295625        2.53874815276849       -3.29749465448763
H            6.72978446823830        0.12110233114812       -2.67336484367320
H           -0.87890278884617        1.11424154326908       -0.85243025140423
H           -1.67407843697195        1.49090932900507        1.73750871941888
H           -2.57639392008423        3.48617147619071        2.80775211040533
H           -4.96297572155670        4.08888695190077        2.49182426580174
H           -6.39892499150104        2.65086861038883        1.14220524329365
