  75
       -110.02987428
 C         -1.7807729947        6.1510822128        1.0147719339
 C         -2.0230921969        5.4860296341       -0.3478349703
 C         -1.1065742883        6.1556902351       -1.3752699641
 C         -3.4775688477        5.7095607488       -0.7859261198
 C         -1.7688087557        3.9927473944       -0.2203765719
 C         -0.8030638846        3.3232083382       -0.9628885722
 C         -0.6039334451        1.9618626759       -0.8248021228
 C         -1.3677889065        1.2339550304        0.0768912116
 N         -1.1689030445       -0.1507665149        0.2146021000
 C          0.0202401001       -0.8047689722        0.4234359314
 C          1.2837334281       -0.1218727900        0.6527976824
 C          1.3008029486        1.0325828212        1.4366137990
 C          2.4694387939        1.7207194867        1.6747826309
 C          3.6807754831        1.2787506777        1.1398406027
 C          4.9038988203        1.9730190954        1.3658858397
 C          6.0720881554        1.5223672226        0.8532311637
 C          6.1213840870        0.3338822277        0.0676276613
 C          7.3161310211       -0.1504831682       -0.4675109886
 C          7.3336008953       -1.3073672798       -1.2247296514
 C          6.1653594307       -2.0059621684       -1.4666543758
 C          4.9473398785       -1.5580083666       -0.9523078415
 C          3.7228964459       -2.2486014101       -1.1827453675
 C          2.5511643031       -1.7995748745       -0.6754390742
 C          2.4905214139       -0.6168551293        0.1181590886
 C          3.6927575232        0.0957067463        0.3601370522
 C          4.9180457036       -0.3749904207       -0.1742401347
 N         -0.1622469508       -2.1016645121        0.4501811553
 C         -1.4902181863       -2.3286619415        0.2571151002
 C         -2.0003886824       -3.6892496960        0.1894778818
 C         -1.2863791085       -4.7066112545        0.8218774006
 C         -1.7354796449       -6.0116070800        0.7736214748
 C         -2.8998631524       -6.3223420485        0.0898649756
 C         -3.6044161135       -5.3202382102       -0.5569379350
 C         -3.1592619152       -4.0125151446       -0.5137441820
 C         -2.1457291762       -1.1162907621        0.1139434972
 C         -3.5523687386       -0.7981353349       -0.0918399580
 C         -4.5215844681       -1.3770697490        0.7269146185
 C         -5.8573445975       -1.0739332228        0.5484101774
 C         -6.2449372476       -0.1875339833       -0.4438826950
 C         -5.2888853257        0.3886046911       -1.2632417272
 C         -3.9507570474        0.0869401717       -1.0920624857
 C         -2.3350761730        1.8860859630        0.8322920341
 C         -2.5276134262        3.2433524212        0.6764430229
 H         -2.4534346792        5.7608115037        1.7734265822
 H         -0.7581193760        5.9742250941        1.3414558501
 H         -1.9385552460        7.2248366364        0.9401914411
 H         -1.2563841032        5.7357239334       -2.3670727183
 H         -1.3334411108        7.2187379656       -1.4240744125
 H         -0.0612096131        6.0488368781       -1.0957709695
 H         -4.1782528099        5.3083170649       -0.0588114460
 H         -3.6749515165        6.7735640615       -0.8977791287
 H         -3.6611628216        5.2218843032       -1.7414176263
 H         -0.1881540424        3.8528883258       -1.6713294390
 H          0.1469704539        1.4591045028       -1.4168082010
 H          0.3829497202        1.3843914121        1.8849130198
 H          2.4549832159        2.6096498498        2.2891553200
 H          4.8727182041        2.8740754992        1.9625200391
 H          6.9961121977        2.0546629606        1.0305559853
 H          8.2332474364        0.3905814338       -0.2823641376
 H          8.2680949910       -1.6681671216       -1.6300018218
 H          6.1858903302       -2.9100694830       -2.0583169401
 H          3.7517332829       -3.1496941779       -1.7790051395
 H          1.6352563060       -2.3435243483       -0.8426446047
 H         -0.3785799152       -4.4492010054        1.3454776142
 H         -1.1762136675       -6.7918945959        1.2696495258
 H         -3.2531885969       -7.3426922304        0.0537780889
 H         -4.5054742520       -5.5599317638       -1.1032876274
 H         -3.7048262372       -3.2414663755       -1.0372075593
 H         -4.2151610770       -2.0651686032        1.5013070318
 H         -6.5997464605       -1.5279828549        1.1882908522
 H         -7.2894564311        0.0508085035       -0.5795982988
 H         -5.5862279835        1.0755385287       -2.0421850053
 H         -3.2111870339        0.5298745815       -1.7437130262
 H         -2.9294647525        1.3285967336        1.5410555437
 H         -3.2857918760        3.7216603122        1.2768950531
  75
       -110.02977734
 C         -3.2521541333        5.7593106671       -0.8083433640
 C         -1.8283694366        5.4651745197       -0.3156605494
 C         -1.6132132381        6.0966592676        1.0672252090
 C         -0.8406765162        6.1093903238       -1.2921143747
 C         -1.6443643225        3.9604723035       -0.2041514630
 C         -0.6841304973        3.2608879011       -0.9256796585
 C         -0.5394172188        1.8924405624       -0.7927863001
 C         -1.3533779378        1.1866744427        0.0825658394
 N         -1.1843210408       -0.2000895025        0.2343522265
 C         -0.0044084568       -0.8592151495        0.4747322480
 C          1.2547292886       -0.1663245804        0.7054259669
 C          1.2627951491        0.9689875587        1.5162537974
 C          2.4192651651        1.6830522541        1.7373390756
 C          3.6238463751        1.2903471486        1.1510723028
 C          4.8320447713        2.0192990483        1.3465779166
 C          5.9930327418        1.6194194127        0.7783474739
 C          6.0502389058        0.4508902389       -0.0362833862
 C          7.2371699691        0.0204380031       -0.6315271354
 C          7.2615361857       -1.1176732455       -1.4164836140
 C          6.1084269497       -1.8510493140       -1.6267304295
 C          4.8983766971       -1.4571987486       -1.0528201488
 C          3.6891787857       -2.1848414637       -1.2496728738
 C          2.5238509221       -1.7843303890       -0.6897931171
 C          2.4569372952       -0.6183105233        0.1277517017
 C          3.6447771505        0.1252890835        0.3450111466
 C          4.8624035095       -0.2932641625       -0.2465765634
 N         -0.1947894836       -2.1533505744        0.5219458658
 C         -1.5224212585       -2.3736955089        0.3119471262
 C         -2.0445070322       -3.7307891983        0.2667347209
 C         -1.3573697312       -4.7386826336        0.9425057577
 C         -1.8212189681       -6.0393283042        0.9195383835
 C         -2.9737207737       -6.3551247545        0.2183863554
 C         -3.6509745802       -5.3630567808       -0.4718521678
 C         -3.1909600780       -4.0598978334       -0.4540009616
 C         -2.1668289099       -1.1596682839        0.1358433687
 C         -3.5658497654       -0.8325791800       -0.1038781078
 C         -4.5591724962       -1.3912330842        0.6997553706
 C         -5.8872746114       -1.0769423312        0.4867805256
 C         -6.2431255843       -0.1998786024       -0.5255195144
 C         -5.2629122749        0.3560731776       -1.3300610611
 C         -3.9322810041        0.0435722065       -1.1240643902
 C         -2.3237385574        1.8670394213        0.8081478888
 C         -2.4621549112        3.2316425018        0.6569458068
 H         -3.4167176259        5.2973115688       -1.7795663565
 H         -3.9987042547        5.3761537666       -0.1182722924
 H         -3.3987857221        6.8325909971       -0.9076969935
 H         -0.6155605587        5.8649824013        1.4343732841
 H         -1.7152772056        7.1777506853        1.0045170693
 H         -2.3364986980        5.7289870381        1.7895679890
 H         -0.9706656592        5.7172783016       -2.2981054243
 H         -1.0145154778        7.1828905239       -1.3263956444
 H          0.1866389160        5.9460856728       -0.9748078981
 H         -0.0285406351        3.7723688618       -1.6105043503
 H          0.2099990076        1.3673629649       -1.3669671494
 H          0.3472266214        1.2862144098        1.9944852335
 H          2.3996523825        2.5567259870        2.3730023874
 H          4.7950253712        2.9058765051        1.9642784429
 H          6.9052295407        2.1789792353        0.9312839817
 H          8.1422222050        0.5893629637       -0.4724908210
 H          8.1899083251       -1.4367345862       -1.8683313872
 H          6.1348458827       -2.7399182497       -2.2407568493
 H          3.7250624885       -3.0737181545       -1.8636741462
 H          1.6190808881       -2.3537899892       -0.8324570999
 H         -0.4586131763       -4.4777788509        1.4797619608
 H         -1.2833792334       -6.8119977250        1.4502714440
 H         -3.3387075991       -7.3717925438        0.2023969639
 H         -4.5419698411       -5.6073207184       -1.0325593869
 H         -3.7143815404       -3.2972932414       -1.0113311640
 H         -4.2775811990       -2.0713184298        1.4904170201
 H         -6.6486807796       -1.5139986476        1.1161868744
 H         -7.2817613491        0.0466638682       -0.6884765109
 H         -5.5353648871        1.0349489109       -2.1249796203
 H         -3.1732948075        0.4699046953       -1.7646112459
 H         -2.9599876129        1.3267742711        1.4936210085
 H         -3.2244327965        3.7323381243        1.2338210755
  75
       -110.02878865
 C         -2.8626364496        6.0755109744        0.1914381601
 C         -1.8222281378        5.3806001449       -0.6904493141
 C         -0.4793196188        6.1004416890       -0.5048466448
 C         -2.2774054874        5.4965565035       -2.1525690764
 C         -1.6545007435        3.9084905591       -0.3511482747
 C         -0.7203860305        3.1504804651       -1.0547026712
 C         -0.5558392053        1.8031193606       -0.8151582355
 C         -1.3280473460        1.1703130663        0.1526648740
 N         -1.1806545653       -0.2146277941        0.3450866576
 C          0.0037112139       -0.8958085260        0.4802455393
 C          1.2598756054       -0.2126415907        0.7474988374
 C          1.2494199789        0.8759294935        1.6209733596
 C          2.3981357894        1.5794728204        1.9044680855
 C          3.6137717595        1.2267725258        1.3156835286
 C          4.8150282572        1.9464452208        1.5759772633
 C          5.9853279062        1.5910875449        0.9974231249
 C          6.0590317187        0.4797893239        0.1076194238
 C          7.2548372055        0.0986616518       -0.5031137580
 C          7.2956199705       -0.9849945773       -1.3609780699
 C          6.1509396001       -1.7127577894       -1.6290698870
 C          4.9322942449       -1.3671335980       -1.0422995044
 C          3.7312332020       -2.0908071359       -1.2967170539
 C          2.5567974281       -1.7354175960       -0.7251312294
 C          2.4722799399       -0.6218376482        0.1605739882
 C          3.6519697244        0.1146719453        0.4385755950
 C          4.8792760653       -0.2576662802       -0.1634245245
 N         -0.1925111757       -2.1892294170        0.4337449326
 C         -1.5310448233       -2.3865301432        0.2677512291
 C         -2.0685850227       -3.7266092945        0.0973379250
 C         -1.3224600216       -4.8193486839        0.5379629376
 C         -1.7954819501       -6.1053872021        0.3655510915
 C         -3.0175541878       -6.3221287391       -0.2505356958
 C         -3.7582774125       -5.2428886050       -0.7037029259
 C         -3.2888389050       -3.9539413820       -0.5375248861
 C         -2.1741994083       -1.1599982115        0.2214021968
 C         -3.5870621787       -0.8073801331        0.1506154422
 C         -4.4777406184       -1.3762659814        1.0608725305
 C         -5.8131845131       -1.0243605948        1.0437583642
 C         -6.2778395947       -0.0992759073        0.1224005109
 C         -5.4017001432        0.4615337385       -0.7914194578
 C         -4.0639869718        0.1114336289       -0.7816530126
 C         -2.2483126865        1.9109170266        0.8792917967
 C         -2.4055248246        3.2619875020        0.6231157442
 H         -3.8454205438        5.6270639866        0.0663724414
 H         -2.5795884533        6.0298885406        1.2404719694
 H         -2.9343071601        7.1235474205       -0.0919276068
 H          0.2888398128        5.6857679881       -1.1513365028
 H         -0.5868769570        7.1570408176       -0.7404520383
 H         -0.1428658579        6.0087739987        0.5257284556
 H         -3.2238731387        4.9785269549       -2.2937208643
 H         -2.4130971040        6.5419715428       -2.4208628261
 H         -1.5475947266        5.0629718298       -2.8307252819
 H         -0.1114117412        3.6097282590       -1.8179682282
 H          0.1636960786        1.2302718609       -1.3819544943
 H          0.3248522589        1.1605819459        2.1022188494
 H          2.3640958090        2.4131545080        2.5911588461
 H          4.7648960593        2.7895909198        2.2508262415
 H          6.8922020223        2.1439489252        1.1986811776
 H          8.1536744001        0.6626202325       -0.2976955100
 H          8.2304422998       -1.2655212262       -1.8247359195
 H          6.1909824906       -2.5597263765       -2.2990638857
 H          3.7812276197       -2.9389639987       -1.9648984675
 H          1.6570649990       -2.3004930563       -0.9116603989
 H         -0.3699081548       -4.6349217411        1.0101703487
 H         -1.2098951283       -6.9451365133        0.7114527824
 H         -3.3886543716       -7.3279584932       -0.3839762398
 H         -4.7059029297       -5.4065567726       -1.1969942782
 H         -3.8632128883       -3.1213930417       -0.9155080212
 H         -4.1088505447       -2.0924086662        1.7807581952
 H         -6.4933644327       -1.4676627303        1.7562366203
 H         -7.3208691344        0.1806332270        0.1153171005
 H         -5.7615052844        1.1761758012       -1.5172762154
 H         -3.3878109262        0.5441280435       -1.5050675164
 H         -2.8447912329        1.4312307678        1.6412785022
 H         -3.1355741686        3.8022181217        1.2027125592
