  57
        -86.18987407
 C         -2.6610705436        2.5752625976        3.3244963842
 C         -2.3623458899        1.2524213123        3.6142856328
 C         -2.1777567268        0.3255242252        2.5969510243
 C         -2.2977891337        0.7513870970        1.2925447008
 C         -2.5972537259        2.0883497515        0.9932564397
 C         -2.7811444194        3.0071383581        2.0132355194
 C         -2.6572740229        2.2346147728       -0.4525709743
 C         -2.9076900760        3.3389256457       -1.2502468151
 C         -2.8970126579        3.1789836184       -2.6267219671
 C         -2.6418507444        1.9413812230       -3.1982204281
 C         -2.3904117127        0.8298588964       -2.4048284767
 C         -2.4001823065        0.9857243090       -1.0362805131
 C         -2.1542204304       -0.0574322601        0.0264079275
 C         -3.1077638322       -1.2259036333       -0.0438720662
 C         -4.4832651706       -1.2119134522        0.0237813083
 C         -5.1614032770       -2.4207830526       -0.0621128992
 C         -4.4706986484       -3.6140956084       -0.2117478994
 C         -3.0869318917       -3.6316878611       -0.2800114961
 C         -2.4036868741       -2.4295639127       -0.1954605720
 C         -0.9828567500       -2.1292261720       -0.2363994239
 C          0.1257159903       -2.9481823531       -0.3766461350
 C          1.3823649358       -2.3708130857       -0.3909866764
 C          1.5539706781       -0.9909188655       -0.2710306840
 C          2.9022039669       -0.4083899287       -0.3064441310
 C          3.1341404178        0.7873053539       -1.0222241966
 C          4.3812863722        1.3366400725       -1.0840146898
 C          5.4746800265        0.7320371422       -0.4285479590
 C          6.7754162706        1.2728957678       -0.4740848366
 C          7.8100358724        0.6586937380        0.1743312598
 C          7.5902984649       -0.5241072932        0.8975939562
 C          6.3407360147       -1.0735440113        0.9599889290
 C          5.2518511520       -0.4652927700        0.3002126472
 C          3.9550536077       -1.0116137397        0.3399043205
 C          0.4332124858       -0.1689157315       -0.1274873483
 C         -0.8159940025       -0.7424604928       -0.1093149263
 H         -2.8021528910        3.2778654177        4.1328314223
 H         -2.2726077090        0.9391140404        4.6440100989
 H         -1.9463343443       -0.7054329894        2.8222041756
 H         -3.0140684194        4.0383151923        1.7926342177
 H         -3.1064235916        4.3048484762       -0.8100060424
 H         -3.0896645501        4.0294731083       -3.2643492260
 H         -2.6383603977        1.8408840310       -4.2736098261
 H         -2.1912065389       -0.1345355496       -2.8493362971
 H         -5.0212058860       -0.2822765209        0.1397528582
 H         -6.2401787367       -2.4317514913       -0.0120477110
 H         -5.0200797484       -4.5420187382       -0.2751267482
 H         -2.5530120769       -4.5631186233       -0.3955193010
 H          0.0133388158       -4.0172610863       -0.4800804421
 H          2.2533337359       -2.9963189720       -0.5225410766
 H          2.3091742765        1.2515880485       -1.5429647001
 H          4.5507741027        2.2463977679       -1.6426092681
 H          6.9390946183        2.1843345359       -1.0317214094
 H          8.8044916486        1.0786542387        0.1357444750
 H          8.4192335605       -0.9955211802        1.4046501659
 H          6.1675348643       -1.9857087170        1.5141665144
 H          3.7938284554       -1.9149458158        0.9111066803
 H          0.5486453431        0.8991065426       -0.0127144043
  57
        -86.18983669
 C         -2.1333678563        2.3307431047        3.5072003769
 C         -1.9638799982        0.9665509001        3.6910649779
 C         -1.9344357276        0.1009785892        2.6057494863
 C         -2.0777283932        0.6295750108        1.3418670178
 C         -2.2467784076        2.0083113255        1.1492837284
 C         -2.2758885399        2.8657770220        2.2367700536
 C         -2.3659096132        2.2627530971       -0.2778208011
 C         -2.5430833202        3.4405115638       -0.9845234450
 C         -2.6235752012        3.3789717057       -2.3666187998
 C         -2.5299846752        2.1661057234       -3.0324520330
 C         -2.3513830771        0.9815478808       -2.3306296278
 C         -2.2703612378        1.0394089664       -0.9568440471
 C         -2.0774881790       -0.0960216018        0.0182701104
 C         -3.1373983985       -1.1659627056       -0.0816936855
 C         -4.5015632734       -1.0323361797        0.0526126662
 C         -5.2928172665       -2.1659707750       -0.0789023110
 C         -4.7233360420       -3.4035573001       -0.3388363136
 C         -3.3512678918       -3.5415517470       -0.4745258966
 C         -2.5554976447       -2.4150675257       -0.3447060034
 C         -1.1153618400       -2.2427695652       -0.4309797773
 C         -0.0927010845       -3.1471804291       -0.6667983435
 C          1.2114019612       -2.6864806110       -0.6930228042
 C          1.5152576005       -1.3405480366       -0.4831439786
 C          2.9107608733       -0.8817848677       -0.5010591672
 C          3.8133038454       -1.3897903718       -1.4620894975
 C          5.1134689722       -0.9778160549       -1.4899645938
 C          5.5976138620       -0.0389598037       -0.5546974093
 C          6.9366948410        0.4009930610       -0.5511891137
 C          7.3700542283        1.3112937442        0.3725150156
 C          6.4833101883        1.8228381563        1.3331413417
 C          5.1787021931        1.4166780426        1.3546563572
 C          4.6998011313        0.4783197672        0.4154473807
 C          3.3621605353        0.0399590456        0.4139044862
 C          0.4807277558       -0.4322034594       -0.2444431443
 C         -0.8154007106       -0.8885299184       -0.2223793920
 H         -2.1534968768        2.9846832730        4.3669780735
 H         -1.8536748744        0.5724878363        4.6907621655
 H         -1.8025507921       -0.9618681581        2.7481189714
 H         -2.4061835283        3.9291845670        2.0988127273
 H         -2.6166141232        4.3875300393       -0.4706356373
 H         -2.7612378028        4.2877741902       -2.9341192224
 H         -2.5966513478        2.1425390408       -4.1101817742
 H         -2.2780290871        0.0364694227       -2.8488450799
 H         -4.9445573455       -0.0680856316        0.2555179614
 H         -6.3647969893       -2.0828871860        0.0229175685
 H         -5.3593686105       -4.2712537849       -0.4370195986
 H         -2.9123961958       -4.5073720447       -0.6768849283
 H         -0.3059745238       -4.1941724010       -0.8240820468
 H          2.0176007537       -3.3874463705       -0.8542987015
 H          3.4521469895       -2.0957173070       -2.1950058008
 H          5.7944407720       -1.3659823646       -2.2343204298
 H          7.6153238689        0.0039125788       -1.2930005234
 H          8.3980465490        1.6431435696        0.3711150422
 H          6.8433782125        2.5399647959        2.0561372021
 H          4.4917127827        1.8093959415        2.0915317439
 H          2.6913173463        0.4267922988        1.1681312573
 H          0.6973042612        0.6162638500       -0.0998605984
