  61
  -105.094853238200       0.320201195306827      !
 C         -6.2089968794        2.1727909218        2.8018788936
 C         -4.8296003138        2.0770618787        2.8705562802
 C         -4.1398147238        1.2486329498        2.0040926696
 C         -4.8218938306        0.5037800805        1.0449215163
 C         -6.2235623400        0.5931727757        0.9954025430
 C         -6.9056694095        1.4251405622        1.8661182117
 O         -6.9672766696       -0.1325452656        0.1050284907
 C         -6.2985395406       -0.9491384882       -0.7655610123
 C         -7.0567942650       -1.6715448489       -1.6703689110
 C         -6.4368741579       -2.5017236686       -2.5903988779
 C         -5.0559474154       -2.5977893984       -2.6092031272
 C         -4.2904461368       -1.8807261565       -1.7075537935
 C         -4.8968312173       -1.0556760935       -0.7634888606
 N         -4.1610785725       -0.3300216526        0.1580631419
 C         -2.7425718111       -0.4073228488        0.1731576773
 C         -2.1250791504       -1.5528838571        0.6703682831
 C         -0.7476225017       -1.7023853076        0.7281283377
 C          0.0477109855       -0.6521485703        0.2638397015
 C         -0.5876177300        0.5081864087       -0.2458164986
 C          0.3406547714        1.4822435423       -0.6820861797
 C         -0.1399949491        2.6782475456       -1.2116568743
 C         -1.5172218021        2.8533581601       -1.2870674749
 C         -2.4276543705        1.8988342881       -0.8591828894
 C         -1.9746537789        0.6813153013       -0.3145367577
 C          1.6329295934        0.9353750305       -0.4429899592
 N          2.8339522978        1.3779795572       -0.6404506965
 C          3.8945283344        0.6499119050       -0.3130646976
 C          5.2152243204        1.1439102902       -0.5352531521
 C          5.4386714845        2.4050191409       -1.1109753909
 C          6.7301839451        2.8349407249       -1.3037785270
 C          7.7759722142        1.9941938584       -0.9163733259
 N          7.5881992725        0.8123727783       -0.3765368169
 C          6.3486445003        0.3762979260       -0.1808439407
 C          6.1663800268       -0.9347669182        0.4196590835
 N          7.2492455237       -1.6316576876        0.7490116634
 C          7.1073543138       -2.8178870628        1.2936893657
 C          5.8656228577       -3.4008285323        1.5510877924
 C          4.7310651203       -2.6975011530        1.2177975204
 C          4.8599735787       -1.4278792596        0.6355982795
 C          3.7116834557       -0.6540409847        0.2746217477
 N          2.4911311376       -1.1216384751        0.4776691345
 C          1.4428691570       -0.4204250398        0.1594675984
 H         -6.7463426017        2.8209771883        3.4755951827
 H         -4.2817057931        2.6486614770        3.6033773669
 H         -3.0659961789        1.1720052521        2.0638431574
 H         -7.9805617472        1.4706238315        1.7953699298
 H         -8.1293655944       -1.5663928581       -1.6391860414
 H         -7.0338119394       -3.0626604986       -3.2918033504
 H         -4.5660861330       -3.2323863589       -3.3311783129
 H         -3.2145034823       -1.9497339608       -1.7298487689
 H         -2.7585425649       -2.3523338041        1.0299440914
 H         -0.3076264213       -2.6031174239        1.1247034195
 H          0.5357286138        3.4462140014       -1.5537345412
 H         -1.8980083224        3.7778210980       -1.6980905791
 H         -3.4867917313        2.0936679303       -0.9451659078
 H          4.5843571071        3.0052393716       -1.3878742700
 H          6.9380100341        3.7982337888       -1.7435365391
 H          8.8080221726        2.2904328701       -1.0489715323
 H          8.0266683901       -3.3328113102        1.5395491378
 H          5.8033316269       -4.3793664570        2.0015846390
 H          3.7394931146       -3.0896688877        1.3902874642
  61
  -105.094846238300       0.317838145081518      !
 C         -6.4144432834        1.7395152679        3.0851710642
 C         -5.0342474138        1.7061600063        3.1894726374
 C         -4.2760968205        1.0350972437        2.2471402253
 C         -4.8914678250        0.3848729399        1.1809694880
 C         -6.2931436482        0.4243585919        1.0819779378
 C         -7.0432672784        1.0980207977        2.0297609126
 O         -6.9668103421       -0.1923349496        0.0623396310
 C         -6.2260284366       -0.8284283735       -0.8968828234
 C         -6.9083854684       -1.4192974920       -1.9458411739
 C         -6.2096407805       -2.0730590239       -2.9483707740
 C         -4.8272907510       -2.1313419400       -2.9006103392
 C         -4.1368040601       -1.5453584878       -1.8551971781
 C         -4.8229769844       -0.8890221966       -0.8369570532
 N         -4.1625995968       -0.2983766294        0.2252111356
 C         -2.7414747674       -0.3459172963        0.2977125140
 C         -2.1260056579       -1.4211931884        0.9316802393
 C         -0.7477419195       -1.5539030788        1.0206630961
 C          0.0467416698       -0.5633030679        0.4393503556
 C         -0.5887915123        0.5311973327       -0.1992890239
 C          0.3379254148        1.4468111258       -0.7496769407
 C         -0.1452795762        2.5753685010       -1.4092943079
 C         -1.5230426398        2.7430628762       -1.4968578651
 C         -2.4319651210        1.8403562413       -0.9661656853
 C         -1.9759809336        0.6898806066       -0.2940163454
 C          1.6306988944        0.9220034918       -0.4661764482
 N          2.8304719695        1.3185926447       -0.7495758922
 C          3.8914913276        0.6157631901       -0.3716590645
 C          5.2100728579        1.0483233282       -0.7051778088
 C          5.4314645414        2.2194251885       -1.4475199902
 C          6.7208494965        2.5875204603       -1.7511820001
 C          7.7668280810        1.7767602416       -1.3050421524
 N          7.5809072102        0.6795656193       -0.6085471928
 C          6.3437432710        0.3039772756       -0.3041125152
 C          6.1637460107       -0.9162161613        0.4650607374
 N          7.2470498205       -1.5894979033        0.8390574281
 C          7.1069093596       -2.6960848913        1.5317460973
 C          5.8667330243       -3.2172038938        1.9035986004
 C          4.7317968001       -2.5363453458        1.5275601895
 C          4.8589516743       -1.3507183377        0.7889692207
 C          3.7099670929       -0.6043045235        0.3753245902
 N          2.4906901858       -1.0244898302        0.6677176316
 C          1.4416043963       -0.3518071989        0.2949068244
 H         -7.0052574160        2.2625381502        3.8202162699
 H         -4.5400587770        2.2048176145        4.0086367228
 H         -3.2006825670        1.0079069963        2.3257361768
 H         -8.1161444552        1.1076596618        1.9233138338
 H         -7.9845045315       -1.3551486196       -1.9592733156
 H         -6.7478126067       -2.5314150320       -3.7627394506
 H         -4.2783527451       -2.6352826001       -3.6807106714
 H         -3.0597944176       -1.5883462126       -1.8174327366
 H         -2.7598074236       -2.1817571733        1.3666949323
 H         -0.3072677433       -2.4017449118        1.5200628886
 H          0.5289119945        3.2987664754       -1.8401963253
 H         -1.9045707866        3.6172008292       -2.0056312286
 H         -3.4920371912        2.0217968539       -1.0700083488
 H          4.5773024347        2.8005102447       -1.7630823179
 H          6.9262931480        3.4801255727       -2.3216644563
 H          8.7972246726        2.0257625551       -1.5212118221
 H          8.0265449885       -3.1958377640        1.8060939835
 H          5.8057534252       -4.1319918854        2.4726889375
 H          3.7413208303       -2.8836317092        1.7827087854
  61
  -105.094419483700       0.202340669422619      !
 C         -5.8929420750        1.5666159739        3.4225918414
 C         -4.5145266538        1.5048510291        3.3107612069
 C         -3.9267780556        0.8883336840        2.2212011867
 C         -4.7132792853        0.3209968482        1.2218881176
 C         -6.1116865069        0.4010105087        1.3362903956
 C         -6.6910585226        1.0164199047        2.4322072489
 O         -6.9480374547       -0.1175971146        0.3850268873
 C         -6.3777302533       -0.6922854284       -0.7188631307
 C         -7.2266068184       -1.1797693774       -1.6968156555
 C         -6.7053971013       -1.7764375759       -2.8340060223
 C         -5.3339064587       -1.8851904654       -2.9899143642
 C         -4.4773243451       -1.4028285021       -2.0167583512
 C         -4.9839559251       -0.7988625864       -0.8692968240
 N         -4.1558717525       -0.3105276378        0.1234378494
 C         -2.7415274897       -0.4510593950        0.0438201044
 C         -2.1308618252       -1.5029079070        0.7214530769
 C         -0.7543586177       -1.6609189017        0.7831340833
 C          0.0437503426       -0.7070247797        0.1481562699
 C         -0.5856926165        0.3469017046       -0.5602705232
 C          0.3469017831        1.2427704630       -1.1338068581
 C         -0.1306878324        2.3336611938       -1.8580518828
 C         -1.5075784059        2.4932307794       -1.9707369345
 C         -2.4218860000        1.6289287435       -1.3874734049
 C         -1.9723180321        0.5163577070       -0.6503334652
 C          1.6363076523        0.7647838359       -0.7647114990
 N          2.8377299975        1.2091397773       -0.9570848903
 C          3.8909703200        0.5804157440       -0.4493449237
 C          5.2093990040        1.0955749922       -0.6345146265
 C          5.4394215154        2.2793864246       -1.3538554190
 C          6.7267815504        2.7421516412       -1.4902399248
 C          7.7623776748        2.0103046476       -0.9049578086
 N          7.5686431112        0.9006912593       -0.2308618723
 C          6.3329434605        0.4354444355       -0.0849507275
 C          6.1444338822       -0.7905164005        0.6728642890
 N          7.2184176574       -1.3937832068        1.1722213620
 C          7.0687935290       -2.4982776102        1.8662592058
 C          5.8277863803       -3.0863735269        2.1155925394
 C          4.7025333333       -2.4794461269        1.6074722760
 C          4.8401102551       -1.2991849192        0.8621846554
 C          3.7011167714       -0.6261263309        0.3171764442
 N          2.4806970222       -1.0920752950        0.5226827645
 C          1.4391140130       -0.4783588920        0.0439509543
 H         -6.3508003872        2.0434638703        4.2745785969
 H         -3.8876037935        1.9388843166        4.0739749433
 H         -2.8529556498        0.8431225592        2.1331153985
 H         -7.7669061147        1.0534759103        2.4911499226
 H         -8.2901307449       -1.0841193029       -1.5475704715
 H         -7.3731923332       -2.1555818460       -3.5911832480
 H         -4.9242925196       -2.3511826575       -3.8724912895
 H         -3.4082672168       -1.4877240973       -2.1332781786
 H         -2.7680858777       -2.2138771143        1.2294115350
 H         -0.3175397855       -2.4866364559        1.3211985759
 H          0.5471624189        3.0368013769       -2.3158467752
 H         -1.8842356592        3.3349233918       -2.5349006743
 H         -3.4809402289        1.8108148105       -1.4999256045
 H          4.5928333400        2.7982127866       -1.7792063892
 H          6.9390029913        3.6495400225       -2.0343116207
 H          8.7909512162        2.3356180148       -0.9867838374
 H          7.9811857246       -2.9412546091        2.2431977640
 H          5.7589794843       -3.9954803231        2.6928000931
 H          3.7118987412       -2.8810643266        1.7628075895
  61
  -105.093732749000       9.783218786553115E-002 !
 C         -6.7498693119        2.1108771133        2.5256530009
 C         -5.3955078169        2.1129074809        2.8137482340
 C         -4.5224523032        1.3246248442        2.0860387956
 C         -4.9934718127        0.5212498321        1.0506164944
 C         -6.3718244560        0.5152345341        0.7740879686
 C         -7.2375444076        1.3082508307        1.5066608095
 O         -6.9126390095       -0.2652648687       -0.2115423933
 C         -6.0574572661       -1.0255677739       -0.9618335638
 C         -6.6063823694       -1.7839335337       -1.9815024503
 C         -5.7901416798       -2.5623191993       -2.7862576760
 C         -4.4223703289       -2.5711859182       -2.5738626488
 C         -3.8655316003       -1.8165149023       -1.5575014219
 C         -4.6717751284       -1.0408497482       -0.7277434333
 N         -4.1470637569       -0.2778247501        0.3038209223
 C         -2.7399829142       -0.2574633713        0.5049983968
 C         -2.1228036939       -1.3612928054        1.0896585944
 C         -0.7460361408       -1.4872499457        1.1957090797
 C          0.0479369510       -0.4631812164        0.6740300429
 C         -0.5877021952        0.6769494939        0.1209892048
 C          0.3401106031        1.6189722797       -0.3818385552
 C         -0.1407800457        2.7865978803       -0.9713908046
 C         -1.5180136399        2.9586390884       -1.0532552870
 C         -2.4282016561        2.0202856835       -0.5901985323
 C         -1.9748859650        0.8329456482        0.0169061673
 C          1.6309603483        1.0558989721       -0.1735793633
 N          2.8264907640        1.4369961218       -0.4945889179
 C          3.8795317398        0.6659923909       -0.2516741295
 C          5.1894453801        1.0755469419       -0.6441344754
 C          5.4130716348        2.3113331323       -1.2722149147
 C          6.6918342914        2.6529048966       -1.6439408521
 C          7.7250282035        1.7512217104       -1.3787515176
 N          7.5367586891        0.5915372330       -0.7931837340
 C          6.3091758024        0.2395865553       -0.4269553797
 C          6.1242068837       -1.0546452556        0.2083476663
 N          7.1909223241       -1.8283656908        0.3821265823
 C          7.0446364515       -3.0051480816        0.9457974437
 C          5.8150063718       -3.4988672379        1.3843511160
 C          4.6973603439       -2.7145530624        1.2151888517
 C          4.8306120729       -1.4556380788        0.6111226230
 C          3.6958150934       -0.6125162238        0.3891631863
 N          2.4827094343       -1.0083685904        0.7371212253
 C          1.4410472048       -0.2672711368        0.4974370444
 H         -7.4301797059        2.7275679407        3.0911952562
 H         -5.0119549363        2.7319424849        3.6096887006
 H         -3.4674815136        1.3232278367        2.3104523569
 H         -8.2877732290        1.2804146246        1.2641605154
 H         -7.6737070576       -1.7482721459       -2.1294060064
 H         -6.2241554090       -3.1518799745       -3.5780350715
 H         -3.7782954412       -3.1653733548       -3.2031657533
 H         -2.7985869944       -1.8189706831       -1.4028017922
 H         -2.7560328907       -2.1575916209        1.4563907860
 H         -0.3053730707       -2.3606894470        1.6486750138
 H          0.5347673341        3.5320810605       -1.3602677801
 H         -1.8990496967        3.8614503213       -1.5096965171
 H         -3.4873034486        2.2040145469       -0.6987485350
 H          4.5684669093        2.9611433717       -1.4492507881
 H          6.8991334991        3.5934621995       -2.1305271793
 H          8.7468046826        1.9773746348       -1.6532092988
 H          7.9500078904       -3.5874751792        1.0547695977
 H          5.7484650488       -4.4738151638        1.8420457001
 H          3.7152416055       -3.0370132573        1.5286786689
  61
  -105.093298473900       6.178780232350527E-002 !
 C         -6.7842862175        2.1063929346        2.4756963752
 C         -5.4357045962        2.1052325013        2.7895273241
 C         -4.5504589383        1.3153280510        2.0785113193
 C         -5.0025030049        0.5145045977        1.0325549416
 C         -6.3760288174        0.5082105013        0.7333014254
 C         -7.2541348944        1.3027345373        1.4492711721
 O         -6.9010281350       -0.2753661438       -0.2582505702
 C         -6.0331008134       -1.0316402841       -0.9974789031
 C         -6.5663639896       -1.7888896276       -2.0263340576
 C         -5.7373645034       -2.5607084689       -2.8241420017
 C         -4.3721359558       -2.5622500132       -2.5963663731
 C         -3.8311920087       -1.8091525695       -1.5702854542
 C         -4.6506476397       -1.0425042725       -0.7449285831
 N         -4.1426463384       -0.2819362247        0.2976919869
 C         -2.7393331861       -0.2588101376        0.5193404260
 C         -2.1225039861       -1.3820144508        1.0673720196
 C         -0.7466096124       -1.5074396265        1.1820748714
 C          0.0487098572       -0.4636845337        0.7030228186
 C         -0.5863605277        0.6941813156        0.1870248508
 C          0.3425017875        1.6512391237       -0.2844762897
 C         -0.1360256021        2.8416443167       -0.8283396967
 C         -1.5128899511        3.0190142090       -0.9028323291
 C         -2.4243366257        2.0627328119       -0.4807224276
 C         -1.9733007066        0.8527155622        0.0818662605
 C          1.6322116976        1.0761935922       -0.1037871857
 N          2.8242928463        1.4525074601       -0.4423956260
 C          3.8751384257        0.6687607687       -0.2329389184
 C          5.1751477702        1.0594555582       -0.6741769647
 C          5.3877891174        2.2792015836       -1.3366243930
 C          6.6529706592        2.5935485141       -1.7728046043
 C          7.6840186617        1.6815297508       -1.5360218268
 N          7.5072327174        0.5397483440       -0.9129072931
 C          6.2928689588        0.2146772823       -0.4832366203
 C          6.1200579670       -1.0592205315        0.1950848945
 N          7.1908074884       -1.8255298731        0.3764625297
 C          7.0553904573       -2.9846811412        0.9781216229
 C          5.8329476874       -3.4678898596        1.4472903232
 C          4.7112344748       -2.6909361310        1.2707986729
 C          4.8334792445       -1.4492437232        0.6300368551
 C          3.6956422813       -0.6098974525        0.4087167768
 N          2.4843299636       -1.0076668167        0.7606910552
 C          1.4420738092       -0.2627472997        0.5347936528
 H         -7.4737957308        2.7255043997        3.0272291206
 H         -5.0660336863        2.7225743790        3.5933224971
 H         -3.5003324004        1.3119396605        2.3242829812
 H         -8.2995350193        1.2764023887        1.1867220017
 H         -7.6319037034       -1.7564392822       -2.1872910486
 H         -6.1591759002       -3.1499527815       -3.6227060002
 H         -3.7173832962       -3.1498611555       -3.2208709946
 H         -2.7658966860       -1.8065791194       -1.4050825055
 H         -2.7560006768       -2.1940259973        1.3974801378
 H         -0.3072846330       -2.3956872412        1.6066384048
 H          0.5408673374        3.6009941780       -1.1868187807
 H         -1.8927700132        3.9409535821       -1.3201790966
 H         -3.4828411637        2.2515082393       -0.5856016763
 H          4.5447893858        2.9365770273       -1.4916631361
 H          6.8512164354        3.5197096215       -2.2898415359
 H          8.6942975160        1.8841732656       -1.8658107639
 H          7.9641423808       -3.5603632462        1.0944116804
 H          5.7752422558       -4.4283551860        1.9357156748
 H          3.7345071431       -3.0057093731        1.6080409973
