  61
       -105.47735170
 C         -6.2089968794        2.1727909218        2.8018788936
 C         -4.8296003138        2.0770618787        2.8705562802
 C         -4.1398147238        1.2486329498        2.0040926696
 C         -4.8218938306        0.5037800805        1.0449215163
 C         -6.2235623400        0.5931727757        0.9954025430
 C         -6.9056694095        1.4251405622        1.8661182117
 O         -6.9672766696       -0.1325452656        0.1050284907
 C         -6.2985395406       -0.9491384882       -0.7655610123
 C         -7.0567942650       -1.6715448489       -1.6703689110
 C         -6.4368741579       -2.5017236686       -2.5903988779
 C         -5.0559474154       -2.5977893984       -2.6092031272
 C         -4.2904461368       -1.8807261565       -1.7075537935
 C         -4.8968312173       -1.0556760935       -0.7634888606
 N         -4.1610785725       -0.3300216526        0.1580631419
 C         -2.7425718111       -0.4073228488        0.1731576773
 C         -2.1250791504       -1.5528838571        0.6703682831
 C         -0.7476225017       -1.7023853076        0.7281283377
 C          0.0477109855       -0.6521485703        0.2638397015
 C         -0.5876177300        0.5081864087       -0.2458164986
 C          0.3406547714        1.4822435423       -0.6820861797
 C         -0.1399949491        2.6782475456       -1.2116568743
 C         -1.5172218021        2.8533581601       -1.2870674749
 C         -2.4276543705        1.8988342881       -0.8591828894
 C         -1.9746537789        0.6813153013       -0.3145367577
 C          1.6329295934        0.9353750305       -0.4429899592
 N          2.8339522978        1.3779795572       -0.6404506965
 C          3.8945283344        0.6499119050       -0.3130646976
 C          5.2152243204        1.1439102902       -0.5352531521
 C          5.4386714845        2.4050191409       -1.1109753909
 C          6.7301839451        2.8349407249       -1.3037785270
 C          7.7759722142        1.9941938584       -0.9163733259
 N          7.5881992725        0.8123727783       -0.3765368169
 C          6.3486445003        0.3762979260       -0.1808439407
 C          6.1663800268       -0.9347669182        0.4196590835
 N          7.2492455237       -1.6316576876        0.7490116634
 C          7.1073543138       -2.8178870628        1.2936893657
 C          5.8656228577       -3.4008285323        1.5510877924
 C          4.7310651203       -2.6975011530        1.2177975204
 C          4.8599735787       -1.4278792596        0.6355982795
 C          3.7116834557       -0.6540409847        0.2746217477
 N          2.4911311376       -1.1216384751        0.4776691345
 C          1.4428691570       -0.4204250398        0.1594675984
 H         -6.7463426017        2.8209771883        3.4755951827
 H         -4.2817057931        2.6486614770        3.6033773669
 H         -3.0659961789        1.1720052521        2.0638431574
 H         -7.9805617472        1.4706238315        1.7953699298
 H         -8.1293655944       -1.5663928581       -1.6391860414
 H         -7.0338119394       -3.0626604986       -3.2918033504
 H         -4.5660861330       -3.2323863589       -3.3311783129
 H         -3.2145034823       -1.9497339608       -1.7298487689
 H         -2.7585425649       -2.3523338041        1.0299440914
 H         -0.3076264213       -2.6031174239        1.1247034195
 H          0.5357286138        3.4462140014       -1.5537345412
 H         -1.8980083224        3.7778210980       -1.6980905791
 H         -3.4867917313        2.0936679303       -0.9451659078
 H          4.5843571071        3.0052393716       -1.3878742700
 H          6.9380100341        3.7982337888       -1.7435365391
 H          8.8080221726        2.2904328701       -1.0489715323
 H          8.0266683901       -3.3328113102        1.5395491378
 H          5.8033316269       -4.3793664570        2.0015846390
 H          3.7394931146       -3.0896688877        1.3902874642
