110
 energy: -148.352965723442 gnorm: 0.000060410707 xtb: 6.7.1 (edcfbbe)
C            9.75836200373962       -0.61869967904935       -1.25189873906336
C            9.06671103687339        0.64282353684391       -1.77606306153088
C            8.91582368600493        0.50518587452935       -3.29760559127775
C            9.96289225992978        1.84586669410884       -1.44908850880669
C            7.69504698041617        0.85936483026614       -1.15305855358648
C            6.94880837572317        1.98225156370737       -1.53567793219904
C            5.70353023705071        2.26875276043761       -1.01531390650652
C            5.17928897134888        1.40564385827231       -0.06507505260295
C            5.89597857222625        0.25076393559874        0.31331225431021
C            7.14770296624861       -0.01295645742533       -0.22713227995601
C            5.06850388001640       -0.45008399693604        1.25564194110825
C            5.22996613431743       -1.62675290847982        1.96960453370205
C            4.23609945605423       -2.05520192330842        2.83917116518244
C            4.43161647982788       -3.35981610218360        3.59947172223173
C            3.24929958344846       -3.70338004762893        4.50966100402483
C            5.68828659484584       -3.24773134994869        4.47423107227678
C            4.60170458051291       -4.50512679779404        2.59096027297772
C            3.09349643498704       -1.26376226238834        2.98734025131641
C            2.90612371880025       -0.08527327705654        2.28855510585360
C            3.89097284702191        0.31618007862765        1.40167881090763
N            3.96982369098303        1.43768591641185        0.59991739512818
C            2.99205261390247        2.43554659546797        0.47888021701217
C            3.37079082899429        3.78109008869600        0.58013518106333
C            2.45058187536004        4.79964334642905        0.44290910765388
C            1.12570674009047        4.45400518620183        0.22345642787733
N            0.02530547172337        5.25479285914049        0.05179912409212
C           -1.08255696800769        4.46664914257198       -0.13029745183572
C           -2.40377762996110        4.82747626010185       -0.34727958855310
C           -3.33317941262899        3.81946472796985       -0.49944846980696
C           -2.96737794002046        2.46918456969467       -0.41469625672936
N           -3.95388152782975        1.48216692325098       -0.55193044347868
C           -5.16732187203380        1.45397070909802        0.10650331224263
C           -5.68843121075002        2.30865456945193        1.06344122791104
C           -6.94206014348148        2.03245183098701        1.57769543886928
C           -7.69422683170156        0.92472220705811        1.17722419203600
C           -9.08060005787173        0.63288514575213        1.73491926501445
C           -9.06252586582122       -0.73171186627446        2.43815891906218
C          -10.08919129807213        0.60710909589907        0.57744567333733
C           -9.54984953718187        1.68143064589692        2.74726041029609
C           -7.14725534234811        0.05704630963536        0.24117829769632
C           -5.89326366248811        0.30956417934134       -0.29113805936867
C           -5.06662021662741       -0.38729303093370       -1.23779774147706
C           -5.23488157804472       -1.55318379418070       -1.96722721596807
C           -4.24004859611995       -1.98009700201170       -2.83677715501702
C           -4.44294443869834       -3.27333015332000       -3.61434073217561
C           -3.25821439619943       -3.61657122731735       -4.52151869538218
C           -5.69304634156023       -3.13871425459961       -4.49531030467690
C           -4.62970907139721       -4.42945161965545       -2.62122736989823
C           -3.08983944757004       -1.19722980052673       -2.96881458157580
C           -2.89572742071513       -0.02924476440663       -2.25420131252107
C           -3.88153320079461        0.36997393115289       -1.36747388614029
C           -1.64567200451478        2.10518494120564       -0.19894140728061
C           -0.69478394477840        3.10700933930446       -0.07098756469000
C            0.72499108698856        3.09891147534403        0.14766265227409
C            1.66654978655767        2.08664728951636        0.26166211831665
H           10.73477013176961       -0.71919143688986       -1.72210516861276
H            9.17951672640694       -1.50869761775552       -1.48766153573469
H            9.90772071375322       -0.56397417063130       -0.17600080147157
H            8.26380476821176       -0.33279049179835       -3.53550156480296
H            9.88655838693577        0.32938875733526       -3.75693214941047
H            8.48956303442972        1.40264013331157       -3.73713713128054
H            9.55477549229269        2.76704624223778       -1.85552536653873
H           10.05678127000512        1.96146892829158       -0.37117683064247
H           10.95621370664333        1.69965306818981       -1.86876436369101
H            7.35329095439200        2.66013823554951       -2.27211420410948
H            5.15392972845107        3.13522503416568       -1.35188785938458
H            7.66777680760390       -0.90213402859607        0.08829677556209
H            6.13734670192399       -2.19594665776841        1.83751986932310
H            3.10456776604175       -2.93938658822772        5.27006071609174
H            3.44480430824200       -4.64692639591062        5.01579748168507
H            2.33234435142682       -3.81465574146412        3.93554189825584
H            6.57536053467189       -3.07171820614695        3.87227381001663
H            5.83656604274608       -4.16591928445306        5.03917169004420
H            5.58437761764469       -2.42283182483295        5.17620526212146
H            3.72219847635490       -4.57803132170858        1.95447482196974
H            4.72937715554424       -5.45100441832290        3.11367102709004
H            5.46866579130240       -4.34808999254274        1.95542183203122
H            2.31587161209937       -1.56432717748676        3.66995073775492
H            2.01598008501245        0.50575689585327        2.44493970503766
H            4.40546282668467        4.01491482101589        0.77928250471370
H            2.75414866832364        5.83342942065214        0.51374421698021
H            0.03009495339295        6.25994298236322        0.05778864872807
H           -2.69751794842824        5.86488172058070       -0.40548015526893
H           -4.36507836388030        4.06560837865532       -0.69801332137434
H           -5.13206570853922        3.16527219075440        1.41391254413507
H           -7.33447894713949        2.70969453898932        2.31824998901546
H           -8.79957452122883       -1.52904470860040        1.74873616719574
H          -10.04258403717988       -0.95237241746746        2.85651071603720
H           -8.33436206939392       -0.72745396026286        3.24668592783219
H          -10.09312428307294        1.56533478741222        0.06182626808179
H           -9.84340816437383       -0.16599591364702       -0.14508625598541
H          -11.09120663106751        0.41402615079344        0.95547077797230
H           -9.60130863049597        2.66857881874290        2.29357156949551
H          -10.54617526587515        1.42238353801588        3.10067746593692
H           -8.88797919501546        1.71809045287737        3.60946462955983
H           -7.68337821706405       -0.82204832608530       -0.08226504144913
H           -6.14813223882116       -2.11571479880892       -1.84739340434977
H           -3.45918934616687       -4.55200413342308       -5.04040578694464
H           -2.34588701572722       -3.74328699764020       -3.94324453769740
H           -3.10183054361139       -2.84469745657971       -5.27157604850926
H           -6.58210592681559       -2.96107316439814       -3.89675200845265
H           -5.57683623543980       -2.30668298685113       -5.18685435221744
H           -5.84674131625013       -4.04871931895578       -5.07191875049311
H           -4.76282715033093       -5.36753690803055       -3.15646796395683
H           -5.49906383555072       -4.27241958801621       -1.98895750158084
H           -3.75485300033116       -4.51838196215257       -1.98039470986970
H           -2.31116286369043       -1.49611076878167       -3.65096262287727
H           -1.99954859220263        0.55560297808104       -2.39873080982950
H           -1.37022036201409        1.06524180610894       -0.11843283910533
H            1.38127186066077        1.05036678175361        0.16894280140052
