  110
       -148.35399235
 C          9.7685847695       -2.6468050738        1.3804230308
 C          8.8389652225       -1.8022564216        2.2635285224
 C          9.5671567624       -0.4996346262        2.6064520998
 C          8.5506793578       -2.5455152013        3.5754215021
 C          7.5302015847       -1.5631077959        1.5242071746
 C          6.7605962625       -2.6687616036        1.1367665980
 C          5.5683400157       -2.5504307074        0.4525852048
 C          5.1249373479       -1.2765113937        0.1315068048
 C          5.8660537046       -0.1453886320        0.5354466421
 C          7.0629106514       -0.2946861986        1.2239610433
 C          5.1244225606        1.0044711029        0.0985156291
 C          5.3520395042        2.3717228935        0.1924896099
 C          4.4434731255        3.2596318613       -0.3583119795
 C          4.6231237589        4.7694391292       -0.2899640999
 C          5.8902084048        5.1774640634        0.4664840870
 C          3.4186110486        5.3890304450        0.4327730669
 C          4.7188860462        5.3303638596       -1.7160038930
 C          3.3188422821        2.7437356538       -1.0168438996
 C          3.0675999355        1.3918111830       -1.1253132667
 C          3.9703585692        0.5126724066       -0.5467365592
 N          3.9799012793       -0.8680187587       -0.5206630657
 C          3.0004027750       -1.6942583662       -1.0901059835
 C          3.3834382476       -2.7388721372       -1.9417873907
 C          2.4478441392       -3.5515500185       -2.5491366718
 C          1.1063702608       -3.2908117322       -2.3123207430
 N         -0.0139866670       -3.9054765548       -2.8125161850
 C         -1.1311687318       -3.2746058672       -2.3253480035
 C         -2.4733817387       -3.5140713783       -2.5794228313
 C         -3.4041767182       -2.6919054445       -1.9774762588
 C         -3.0168592944       -1.6610361182       -1.1108425632
 N         -3.9920605194       -0.8345768523       -0.5352157691
 C         -3.9581389828        0.5461212980       -0.5132560275
 C         -3.0352150556        1.4299576309       -1.0518839650
 C         -3.2614415809        2.7813814678       -0.8925608827
 C         -4.3810901547        3.2931830874       -0.2225395881
 C         -4.5283348325        4.8021200456       -0.0887944853
 C         -4.5939995215        5.4292276724       -1.4885442140
 C         -3.3191074195        5.3602846947        0.6749638355
 C         -5.7950292329        5.2038760662        0.6716337996
 C         -5.3125972719        2.4022090184        0.2830973026
 C         -5.1099224437        1.0356042034        0.1378462846
 C         -5.8771844509       -0.1150096537        0.5255304913
 C         -7.0854578387       -0.2653313700        1.1935817857
 C         -7.5793700758       -1.5342861782        1.4446860711
 C         -8.9037514055       -1.7746484202        2.1551774771
 C         -9.8361384086       -2.5637493112        1.2250047458
 C         -9.6104601161       -0.4716661526        2.5391654108
 C         -8.6520300153       -2.5752719096        3.4405432172
 C         -6.8231466870       -2.6398345220        1.0317542101
 C         -5.6198949846       -2.5202657801        0.3673881714
 C         -5.1509842549       -1.2447195023        0.0919132401
 C         -1.6756102549       -1.4342199030       -0.8361745764
 C         -0.7276751172       -2.2309707738       -1.4596335617
 C          0.7078278226       -2.2397187803       -1.4532472815
 C          1.6599711208       -1.4491178632       -0.8283291355
 H         10.7197952801       -2.8089973511        1.8835122538
 H          9.9585325967       -2.1350257430        0.4391265510
 H          9.3323796498       -3.6166393815        1.1581331893
 H          9.8122661308        0.0596058179        1.7064297062
 H         10.4970338526       -0.7291306970        3.1233863113
 H          8.9645463177        0.1245993319        3.2620829210
 H          7.8778123955       -1.9595644563        4.1981597760
 H          8.0885094990       -3.5113007159        3.3911276223
 H          9.4754954280       -2.7096963418        4.1249820966
 H          7.1027205758       -3.6629874569        1.3816297573
 H          4.9964627208       -3.4274676891        0.1878929303
 H          7.6038831160        0.5907727320        1.5136781117
 H          6.2431266083        2.7121945689        0.6931327560
 H          5.8657856095        4.8170784680        1.4923198977
 H          5.9631639421        6.2630925176        0.4931517064
 H          6.7805629448        4.7934938602       -0.0260581640
 H          2.4904477023        5.1827427048       -0.0926798567
 H          3.5371268942        6.4684819938        0.5025484910
 H          3.3364580493        4.9846277829        1.4395602577
 H          5.5562365453        4.8763921333       -2.2420808511
 H          4.8717100266        6.4073955367       -1.6869089390
 H          3.8135212204        5.1308003623       -2.2824051724
 H          2.6104357314        3.4235823236       -1.4655090789
 H          2.1976719412        1.0360153810       -1.6569691601
 H          4.4342065624       -2.8915676411       -2.1356278483
 H          2.7542824880       -4.3528037266       -3.2047952855
 H         -0.0157939735       -4.6727294948       -3.4618997810
 H         -2.7839096339       -4.3070391399       -3.2432855482
 H         -4.4542934098       -2.8274061622       -2.1864963490
 H         -2.1684469412        1.0792793400       -1.5919103560
 H         -2.5364388671        3.4642543999       -1.3089728715
 H         -3.6839744999        5.2404148472       -2.0507282808
 H         -4.7290337429        6.5061512246       -1.4116059021
 H         -5.4310193202        5.0145614202       -2.0460568374
 H         -3.2546485240        4.9037218706        1.6606604943
 H         -2.3901383219        5.1619546293        0.1475875453
 H         -3.4170965135        6.4370411088        0.7982945594
 H         -5.7899548759        4.7984916987        1.6807985321
 H         -5.8455451191        6.2885219608        0.7454710600
 H         -6.6875156935        4.8611796905        0.1532867005
 H         -6.2016684839        2.7397782407        0.7892312971
 H         -7.6141630110        0.6196627748        1.5062941866
 H        -10.7969549153       -2.7294343836        1.7083375101
 H         -9.4139419707       -3.5311137598        0.9674559890
 H        -10.0036141342       -2.0090856876        0.3038915269
 H         -9.0040750330        0.1144151598        3.2258567992
 H         -9.8325286264        0.1266917361        1.6585576247
 H        -10.5515478065       -0.7019417758        3.0350734130
 H         -9.5882689862       -2.7388174022        3.9706115944
 H         -7.9747441835       -2.0303597987        4.0949624309
 H         -8.2100356483       -3.5439948838        3.2249782578
 H         -7.1856710718       -3.6354254734        1.2387816090
 H         -5.0597294778       -3.3987069195        0.0834018892
 H         -1.3808678893       -0.6557774787       -0.1500754440
 H          1.3694472814       -0.6597119528       -0.1528133531
