110
 energy: -148.254687872194 gnorm: 0.000076100813 xtb: 6.7.1 (edcfbbe)
C            9.74181049554696       -2.74033643807410        1.32347204258099
C            8.80152517198658       -1.92869515922708        2.22613926466476
C            9.53689655937084       -0.65519934899612        2.65284358547598
C            8.47116381517266       -2.73420962643548        3.49087233667342
C            7.51456546888873       -1.63734017207184        1.46951453947902
C            6.74225935424401       -2.71166581131166        1.01124761625951
C            5.56316440382645       -2.54079331748774        0.30567103052246
C            5.14669448548387       -1.24738191440670        0.03711478626128
C            5.88913501310513       -0.14529130543045        0.52012531103424
C            7.06839124286675       -0.34489336039578        1.22665593559719
C            5.16222921961189        1.03346929169854        0.14158417066291
C            5.40103541822522        2.39084990933426        0.31547619538252
C            4.50490055613598        3.31845387295507       -0.19944030948123
C            4.69706165195367        4.81836807003446       -0.03508490989305
C            5.95168440670178        5.16830278551131        0.76988781275451
C            3.48245806128617        5.40237402348293        0.70073896469685
C            4.82529965618511        5.46484279480604       -1.42190539758154
C            3.38963618907203        2.85387008540942       -0.90717930858753
C            3.12982889880052        1.50726293963310       -1.09807425003336
C            4.00998007906231        0.59031071888428       -0.54730402378157
N            4.01250556587885       -0.79036734566954       -0.60624145785204
C            3.03475813761957       -1.57979375740992       -1.20820815082672
C            3.42389657596988       -2.64141736770719       -2.03255555205819
C            2.46253279662600       -3.45046738216694       -2.65190162218024
C            1.13372677941903       -3.17078812207415       -2.41582100661407
N            0.01074037338949       -3.79938432095689       -2.88662182908027
C           -1.11470622604389       -3.18309625304833       -2.40469932547105
C           -2.44237092595141       -3.47909597494707       -2.62609644509227
C           -3.40669071419425       -2.67736756112428       -2.00157167832658
C           -3.02098124159738       -1.60469377287542       -1.19055522581473
N           -4.00200534999418       -0.81523678112802       -0.59267288831082
C           -4.01829486196322        0.56606294598866       -0.56765740583233
C           -3.15437041005763        1.48063215819459       -1.14742865621603
C           -3.43429667081885        2.82761669687120       -0.99295736593071
C           -4.55351384539047        3.29457408555891       -0.29293402967833
C           -4.77135488086163        4.79539128968138       -0.17486446036510
C           -4.92062357475072        5.39398592797100       -1.58100194731884
C           -3.56288504270592        5.42499422103571        0.53281001134208
C           -6.02687843257520        5.14861751308394        0.62726270414826
C           -5.43088666709063        2.36811340400557        0.25517087613609
C           -5.17196589924332        1.01030670893466        0.11795853099694
C           -5.87853213362324       -0.16894128631774        0.53252575895208
C           -7.04800883504945       -0.36815669780740        1.25499439451505
C           -7.47294991132737       -1.66052946955173        1.53348740230378
C           -8.74670555686152       -1.95159659964998        2.31232178519291
C           -9.68533123525856       -2.79977737930438        1.44215639433565
C           -9.49613353023703       -0.67867439292990        2.71567979789863
C           -8.38912784211906       -2.71959751839846        3.59291696370938
C           -6.69065749209094       -2.73476972194845        1.09196782799684
C           -5.52117037472248       -2.56447163332761        0.37093127014358
C           -5.12464428295503       -1.27189173286619        0.06983304159102
C           -1.67586298992972       -1.29964857903996       -0.96128736082474
C           -0.70041014550688       -2.10016221248223       -1.57044820355323
C            0.71576971835626       -2.09355800325816       -1.57584218588510
C            1.68819919134997       -1.28880311249867       -0.96759741833887
H           10.67631001052333       -2.94383716435164        1.84239514531013
H            9.96467042772308       -2.18262153500748        0.41615130008326
H            9.29752820641209       -3.68981129987352        1.03862408566243
H            9.81001593776755       -0.05330601701356        1.78916817744525
H           10.45153697129094       -0.92373574427090        3.17793019119647
H            8.92696358108007       -0.05800526639352        3.32667237478897
H            7.78563245586280       -2.17443790200100        4.12378401313940
H            8.00754489314015       -3.68559759431057        3.24597394339504
H            9.37938081040930       -2.93332522912941        4.05610751374300
H            7.06402324331774       -3.72159450890644        1.21309066458866
H            4.98442698293413       -3.39501958126497       -0.00983390158100
H            7.61139404046202        0.51597004560090        1.57864645903296
H            6.28701508723472        2.69538009018404        0.84660216805466
H            5.90426625061185        4.74601214712005        1.77100789976388
H            6.03133210228304        6.24952988759866        0.86483747558449
H            6.84936076369296        4.80891582533133        0.27215218251786
H            2.56440742915732        5.24117173452029        0.14293018430623
H            3.61034207502139        6.47343245402477        0.84371366622394
H            3.37432560232034        4.93389253349684        1.67681891441782
H            5.67079545691554        5.03852551115986       -1.95788382533998
H            4.98390803326083        6.53672633488849       -1.32237357004210
H            3.93072135715084        5.30715009406116       -2.01764267281806
H            2.69708914294816        3.56341717033391       -1.33273681279701
H            2.27228929864007        1.19026186334984       -1.67117666948028
H            4.47037315772073       -2.80177466795516       -2.23368964792829
H            2.76340286905850       -4.25180526131884       -3.30934824956258
H            0.01220343323269       -4.60701607885078       -3.48798466897018
H           -2.74064237264200       -4.28691357468093       -3.27675803622383
H           -4.45344309132409       -2.85142122765238       -2.18975990834673
H           -2.29461745248769        1.16036823618491       -1.71545486150048
H           -2.75539962971980        3.53569422633964       -1.44233494386672
H           -4.02743692978850        5.23279372991674       -2.17790766019430
H           -5.09784280076628        6.46556031142126       -1.51523827024334
H           -5.76192203933917        4.93544530279763       -2.09661372360529
H           -3.43976558903467        4.99078438622233        1.52285484213994
H           -2.64572082583562        5.26238037395109       -0.02603781853024
H           -3.70947247574542        6.49767297736562        0.64164220928648
H           -5.96559334566713        4.75939360494693        1.64095122643307
H           -6.12524250832968        6.23075259103089        0.68829234762990
H           -6.92113236536540        4.75776548206081        0.14740044469799
H           -6.31821810094780        2.67380526224308        0.78340539610395
H           -7.60006665079750        0.49313277165722        1.59156597476964
H          -10.61072785815855       -3.00300650949789        1.97724821635436
H           -9.23067286453747       -3.74995977489987        1.17672457143979
H           -9.92673362903586       -2.26909871409487        0.52343883531318
H           -8.88755996835053       -0.05575280654486        3.36707168766913
H           -9.78817008666064       -0.10284796829826        1.84049412568047
H          -10.40053259058660       -0.94730514979422        3.25817085943978
H           -9.28744705196299       -2.91816271360516        4.17394196501049
H           -7.70505550469658       -2.13350809133527        4.20319049460956
H           -7.91355870686163       -3.66966596089497        3.36646992887207
H           -6.99674695677746       -3.74394119080237        1.32030331337726
H           -4.93390167420404       -3.41746771563735        0.06791000286401
H           -1.40089753335555       -0.50598250307370       -0.28617602456078
H            1.41034791213624       -0.50520697104227       -0.28207870728195
