110
 energy: -148.254694118601 gnorm: 0.000150718395 xtb: 6.7.1 (edcfbbe)
C            9.72676444051224       -2.75211616315457        1.39465542185231
C            8.79672463515444       -1.90067208530445        2.27087065349802
C            9.54411706733716       -0.61862996082295        2.64828594731696
C            8.46502094996212       -2.65708299405438        3.56522504974068
C            7.50891897653961       -1.62633582374540        1.50930822721791
C            6.72677506840133       -2.71023631191386        1.09194153636076
C            5.54609194752440       -2.55530766325886        0.38555423926183
C            5.13783936888559       -1.26887686495185        0.07412658036541
C            5.89049993900727       -0.15618390862210        0.51508308412533
C            7.07137183736879       -0.33986938874295        1.22312959192405
C            5.17070868437375        1.01399148475640        0.09813596940973
C            5.42137033653879        2.37476792016261        0.22118616713904
C            4.53024200170181        3.29036542907562       -0.32294479542324
C            4.73664636861338        4.79364180918111       -0.21657224173688
C            5.99981052868556        5.16231493112408        0.56637515984889
C            3.53236109502537        5.41643763575061        0.50418430516927
C            4.86136256846140        5.38572259894137       -1.62782737843730
C            3.40696085856550        2.80949851347096       -1.00674015659747
C            3.13548790251785        1.45912185507166       -1.14744602438629
C            4.01183873587676        0.55551808599035       -0.56920470715924
N            4.00414897910055       -0.82635293769116       -0.57971213892491
C            3.02157141032665       -1.62828186927435       -1.15723364490199
C            3.40445984393767       -2.71411863968062       -1.95231152485046
C            2.43829033188126       -3.53056494397687       -2.55422417811333
C            1.11116703118594       -3.23391362108719       -2.32980639896065
N           -0.01569186971696       -3.86151098508957       -2.79301812017061
C           -1.13722307428716       -3.22355355011876       -2.33109898993818
C           -2.46678127545199       -3.50777701792861       -2.55725061609887
C           -3.42605424778783       -2.68278494137429       -1.95600215952454
C           -3.03415210591816       -1.60121713595575       -1.15944374428353
N           -4.00999903898623       -0.79138086616568       -0.58168798099089
C           -4.00475211160238        0.59051123978472       -0.56769581757196
C           -3.11916223241802        1.48741264580478       -1.14227481639980
C           -3.37784989245815        2.83993546093649       -0.99785192538089
C           -4.49729724539256        3.32951303154741       -0.31396674856503
C           -4.68908102714266        4.83437016382351       -0.20272354090820
C           -4.80583751614016        5.43260249824807       -1.61205856063168
C           -3.47977230958120        5.44268967032763        0.52198889725701
C           -5.94970530042441        5.21273912042130        0.57969724145551
C           -5.39803446834440        2.42087005562666        0.22599230568749
C           -5.16024060880545        1.05812105369681        0.09920289081674
C           -5.89171388173606       -0.10625885973501        0.51191472239853
C           -7.07558735246395       -0.28055530017942        1.21734367298119
C           -7.52569379234230       -1.56354656678578        1.49963891584491
C           -8.81755088803947       -1.82762511795240        2.25795536267033
C           -9.75297743434084       -2.67002962562401        1.37873378839259
C           -9.55472512049101       -0.53959635422574        2.63509283640826
C           -8.49520700568202       -2.58832815752867        3.55215693114144
C           -6.75272131332007       -2.65370109519196        1.08150687835773
C           -5.56936719488433       -2.50813925656185        0.37754888129519
C           -5.14876317110515       -1.22488562951625        0.06948877670920
C           -1.68691215120536       -1.30813570233233       -0.92566340780330
C           -0.71657221551054       -2.12874522703803       -1.51573737647612
C            0.69967197242212       -2.13514573850926       -1.51510131512487
C            1.67687840104383       -1.32284184469859       -0.92485831160426
H           10.66185424972888       -2.94401257328590        1.91692328275844
H            9.95010077661684       -2.22957898534342        0.46674380027446
H            9.27393868222783       -3.70779166414777        1.14635932051907
H            9.81798114748751       -0.05040426031308        1.76232341071380
H           10.45902880482962       -0.87551044862889        3.17870657205546
H            8.94210760545695        0.00732919297117        3.30285705925510
H            7.78692164779015       -2.06893089391949        4.18015706179026
H            7.99233677087092       -3.61267918286617        3.35672310779797
H            9.37392024954831       -2.84339119938793        4.13371938077479
H            7.04203304520883       -3.71484130666690        1.32775901939357
H            4.95980803664856       -3.41552321537433        0.10176207850762
H            7.62239380004812        0.52864597221008        1.54233536830262
H            6.31275927339300        2.69105384349550        0.73614893631394
H            5.95578042888922        4.77828747257089        1.58293453480054
H            6.08945384932377        6.24558830986179        0.62016518999921
H            6.89082097691387        4.77653826280825        0.07646989819766
H            2.60891764627782        5.24111188651699       -0.04031000744909
H            3.67006202997345        6.49118964823131        0.60378621679712
H            3.42764295915502        4.98778727480987        1.49876367033423
H            5.69816562550066        4.93012080521855       -2.15325728901773
H            5.03222171845514        6.45879456851638       -1.57021320935798
H            3.96068569147028        5.21546305786841       -2.21078527378694
H            2.71754548164055        3.50880858476617       -1.45379867346170
H            2.27218164624808        1.12857800508596       -1.70400904719260
H            4.45017203605648       -2.88764807443124       -2.14650827098966
H            2.73441625899458       -4.34977983498193       -3.19148971986557
H           -0.01913853782448       -4.68104744169017       -3.37805259939162
H           -2.76972809097538       -4.32389977653538       -3.19527624016794
H           -4.47306387248542       -2.84642796047516       -2.15175296477293
H           -2.25836575514670        1.15035673024605       -1.69881039549428
H           -2.68114110177203        3.53391676929289       -1.44189175776650
H           -3.90601923586720        5.25550637275883       -2.19430367069644
H           -4.96616038792920        6.50710185019350       -1.55088723903751
H           -5.64632658584993        4.98716201811004       -2.14030935669262
H           -3.38085436943318        5.00962131059170        1.51524895251073
H           -2.55727244940290        5.26005558239885       -0.02170386189343
H           -3.60695207289637        6.51840784088305        0.62507988110051
H           -5.91094901674908        4.82479093970281        1.59498319057515
H           -6.02874100868642        6.29664991196895        0.63712481767236
H           -6.84376171003711        4.83746780567517        0.08718555568650
H           -6.28709394465882        2.74412509327270        0.74065252449641
H           -7.61906610005206        0.59232900607289        1.53756254565300
H          -10.69100633141768       -2.85401266774379        1.89857241506700
H           -9.30813516527484       -3.62951873670031        1.13073055304795
H           -9.96939983059870       -2.14475170481840        0.45073105472411
H           -8.94911037476799        0.08020875895078        3.29218677333739
H           -9.82115791165128        0.03218561351300        1.74914776212847
H          -10.47329904566130       -0.78919268853093        3.16265132819158
H           -9.40697240673928       -2.76782750881843        4.11824549633552
H           -7.81374969945338       -2.00655227177175        4.16944006367313
H           -8.02989991807629       -3.54751985524167        3.34354408037656
H           -7.07756893725712       -3.65586191676567        1.31468208700000
H           -4.99051344421769       -3.37315572322525        0.09311460158168
H           -1.40709004573865       -0.50810378843821       -0.26019671791566
H            1.40377967308661       -0.51948055084364       -0.26059896285465
