110
 energy: -148.354166980673 gnorm: 0.000038478428 xtb: 6.7.1 (edcfbbe)
C            9.72302926407854       -2.74423676854632        1.39158952013810
C            8.79775082826343       -1.89675786881656        2.27641972634629
C            9.54502574380250       -0.61342997997785        2.64968279640351
C            8.47922508905972       -2.65547060445136        3.57244152548683
C            7.50320212584575       -1.62196214673746        1.52460752085663
C            6.71651250966088       -2.70710687343997        1.11423089821807
C            5.53520402414625       -2.55654208988121        0.41764189425051
C            5.12108746131901       -1.27019213028713        0.10708102012263
C            5.87934306338381       -0.15933547228831        0.53425219025609
C            7.06476393166254       -0.34088630618356        1.23479339081775
C            5.16485212951179        1.01020454283351        0.10456849218317
C            5.41700727565054        2.37119279369517        0.22198615097852
C            4.53086094177517        3.28437786049286       -0.32395735167309
C            4.73567203738908        4.78929603136039       -0.22496964028633
C            6.00514300896564        5.16076269198698        0.54629265653542
C            3.53730251612602        5.41322473399096        0.50428674070427
C            4.84856860000142        5.37829189999012       -1.63827950573186
C            3.40396582007892        2.79971590294850       -1.00212469408603
C            3.12889033027060        1.45442890306000       -1.13447308947432
C            4.00863469472591        0.54971023775736       -0.55991287125294
N            3.99196137043444       -0.83095746809652       -0.55343015095075
C            3.00478431545262       -1.63722332314834       -1.13814676851191
C            3.38415649553887       -2.68337611780450       -1.98980033633372
C            2.44586731283905       -3.49172027061310       -2.59812028547308
C            1.10558258474181       -3.22537362217537       -2.36148863332492
N           -0.01559405747388       -3.84469624816167       -2.85327304043000
C           -1.13146024716165       -3.21505728687293       -2.36249057786730
C           -2.47392795862951       -3.46887776343293       -2.60047861519739
C           -3.40525455000036       -2.65222943415146       -1.99256544719908
C           -3.01709183154039       -1.61026301548280       -1.13970047126083
N           -3.99750285633627       -0.79607661083161       -0.55464205339609
C           -4.00135097174900        0.58473669569423       -0.55752915883933
C           -3.11222932491191        1.48292385079699       -1.12791120572028
C           -3.37454492456992        2.83035273576233       -0.99139683430784
C           -4.49761601039655        3.32358949679423       -0.31307370654055
C           -4.68745430009895        4.83006097590592       -0.20808829043260
C           -4.79331571970580        5.42606953867600       -1.61898403758310
C           -3.48346533395885        5.43888192316748        0.52469018039974
C           -5.95368435768499        5.21104224698834        0.56386907171142
C           -5.39367428316800        2.41711617837481        0.22783077833413
C           -5.15444920549575        1.05418520402727        0.10611277018301
C           -5.88081253598279       -0.10975765336848        0.53099921162093
C           -7.06967767639011       -0.28199216542858        1.22803527745877
C           -7.52059510412524       -1.55963625000327        1.51379282858936
C           -8.81959257735722       -1.82421337681653        2.26157479447723
C           -9.74779509162828       -2.66724783115230        1.37555042799532
C           -9.55953958504334       -0.53511712430460        2.62953271597532
C           -8.51022403230562       -2.58240051450238        3.56010787109302
C           -6.74234191358001       -2.65096500275499        1.10374152623312
C           -5.55811286660298       -2.50965949002419        0.41017040852815
C           -5.13187374053591       -1.22649824584347        0.10277948724571
C           -1.67516297147427       -1.36558293209176       -0.88489887945855
C           -0.72646754686887       -2.16115456005697       -1.50962806528062
C            0.70953083344109       -2.16764293756081       -1.50914924581089
C            1.66497303190286       -1.38025053309172       -0.88435867812326
H           10.66340255132982       -2.93459240638419        1.90507494852150
H            9.93672484721114       -2.21987660704439        0.46236561252883
H            9.27056954371770       -3.70089794101433        1.14581666919556
H            9.81343712647892       -0.04521386612059        1.76203553839496
H           10.46300269444293       -0.86813459949400        3.17599873194372
H            8.94453463086939        0.01188799899590        3.30626147447119
H            7.80546297849653       -2.06933080841709        4.19406295967504
H            8.00620792821191       -3.61165994637197        3.36686625137340
H            9.39316601897784       -2.84151226926259        4.13308645292749
H            7.03607274514651       -3.71095543447411        1.35010492024191
H            4.94935272631726       -3.41881355216909        0.13568713813778
H            7.61952729542303        0.52993521695374        1.54212926824489
H            6.30822796420348        2.68692723061478        0.73830172575059
H            5.96763883056827        4.78326359863512        1.56555155786809
H            6.09774171041709        6.24421904790782        0.59239120329977
H            6.89148376817951        4.76915135039552        0.05251718249930
H            2.60943239030892        5.23544553562145       -0.03207146537622
H            3.67414365550954        6.48850318743215        0.60036173333537
H            3.44115966081681        4.98669925381849        1.50068850070238
H            5.68191631168280        4.92249375762837       -2.16909083806615
H            5.01807407815829        6.45192222149009       -1.58534791959462
H            3.94365822150248        5.20529888199652       -2.21400532696805
H            2.71354668300197        3.49958836138713       -1.44804403285983
H            2.25853214137114        1.12303845478451       -1.68100218828031
H            4.43460025861711       -2.84209654672632       -2.18038714918498
H            2.74894670289948       -4.29609525255235       -3.25157901039679
H           -0.01888506875647       -4.62017790627384       -3.49283433667365
H           -2.78384676573884       -4.27009749816548       -3.25460566063436
H           -4.45692078694397       -2.80111337994176       -2.18431337628720
H           -2.24427083965661        1.14512296909950       -1.67431872581237
H           -2.67671083297996        3.52502846121057       -1.43389080485235
H           -3.89018066941670        5.24536787461356       -2.19513090576446
H           -4.95090412203314        6.50129273195921       -1.56168380125989
H           -5.63149463965424        4.98174347036318       -2.15190824068422
H           -3.39246919776177        5.00731038825456        1.51940261468125
H           -2.55696415589236        5.25401296952958       -0.01162957958842
H           -3.60957375105628        6.51507482529955        0.62510282731811
H           -5.92080489114462        4.82865938974692        1.58146985173019
H           -6.03526148229036        6.29517164437893        0.61470118750804
H           -6.84360834169781        4.83069872727829        0.06774074936784
H           -6.28274314425638        2.73962632406878        0.74366544421310
H           -7.61726939547050        0.59319310966905        1.53583341835061
H          -10.69176247202602       -2.84850010184174        1.88572270430292
H           -9.30208167172479       -3.62831616808856        1.13475952726239
H           -9.95349835093181       -2.14422094292735        0.44377790670876
H           -8.95798130576575        0.08684507939667        3.28830271488726
H           -9.81942301522989        0.03376069537301        1.73976301101299
H          -10.48189043478940       -0.78259143055860        3.15163277527092
H           -9.42726646466761       -2.76242685555346        4.11764137167949
H           -7.83554101915143       -1.99892927361512        4.18324433723577
H           -8.04163202211046       -3.54147579069309        3.35778468899989
H           -7.07115365754589       -3.65234157851839        1.33739688621524
H           -4.97925437437472       -3.37663490503540        0.12820920790129
H           -1.38092895379269       -0.57630861716999       -0.21086934639478
H            1.37752330632001       -0.58770940591814       -0.21122252265929
