47
 energy: -72.877270715393 gnorm: 0.000052951194 xtb: 6.7.1 (edcfbbe)
C           -5.10265245126938       -2.40504319513883       -0.13007028336478
C           -4.14521181198613       -3.13376867034015        0.55756409298138
C           -2.83159951718680       -2.70932543240704        0.57498289067506
C           -2.45607102415468       -1.54292919738574       -0.09273027128224
C           -1.05552490931286       -1.15324989314949       -0.04283772758138
N           -0.07640435903138       -2.02241375955356       -0.01327052066865
C            1.07085601212975       -1.29637184682529        0.01584198786832
C            2.40918523629012       -1.77911623824883        0.01283613696915
C            2.68471970673596       -3.14974762769625       -0.03074471979180
C            3.98241708216324       -3.59474466241046       -0.06670026780122
C            5.02353221227555       -2.66849337112005       -0.06464043198873
C            4.76391014288772       -1.31883796355436       -0.01612503284611
C            3.45135912748438       -0.82445188810319        0.03242810848163
C            3.14441030662729        0.59275459425496        0.12146883850562
C            4.15625260757171        1.55789736942242        0.22413241736207
C            3.87715543188351        2.89750292317376        0.35542122606545
C            2.55710875729495        3.33316515070931        0.40785099771145
C            1.53590339873883        2.42155792280190        0.30208392180544
C            1.79885498065978        1.05393302256763        0.13791364171961
C            0.77974014063817        0.06680772909026        0.02170526710741
N           -0.59424045452830        0.14571329409226       -0.02748751972513
C           -1.40667778977416        1.29592206849790       -0.05984273495930
C           -2.28644941216942        1.54809938738897        0.98594590519232
C           -3.10773207690011        2.66002854886221        0.93596856975246
C           -3.05418517619360        3.51858319962597       -0.14929013970829
C           -2.17677845239599        3.26542789682321       -1.19171503562740
C           -1.35421613449609        2.15505211909442       -1.15388020603795
C           -3.41906398237757       -0.82986966925766       -0.80397987258475
C           -4.73303274022983       -1.26022585363364       -0.81551674592414
H           -6.13146984854050       -2.73342817162749       -0.14028507758472
H           -4.42605452780741       -4.03521016765114        1.08210730850811
H           -2.07331307963920       -3.26735850948534        1.10165282021082
H            1.84873713843349       -3.83170935604130       -0.04179546315955
H            4.20034585266545       -4.65199487402747       -0.10161745959067
H            6.04687425809984       -3.01359757728831       -0.10148102876100
H            5.60217085530731       -0.64024513488196       -0.01991803549638
H            5.19032703264473        1.25355366707342        0.21109381857613
H            4.68419155604752        3.61127882359320        0.43210296963493
H            2.33501426140328        4.38235766638745        0.53582984587759
H            0.51473977709542        2.76291786543901        0.36312485966252
H           -2.32187893348604        0.87055306101786        1.82601451727958
H           -3.79025185843960        2.85639883112472        1.74893700359768
H           -3.69646707228949        4.38544351109781       -0.18432744731002
H           -2.13513638536696        3.93226171782688       -2.03984281730975
H           -0.66730477131777        1.94583300539692       -1.96112744187054
H           -3.14445446411140        0.04832199209280       -1.36835395777616
H           -5.47163364208493       -0.69923430763529       -1.36942690679873
