47
 energy: -72.785962642091 gnorm: 0.000102660756 xtb: 6.7.1 (edcfbbe)
C           -5.06398647036810       -2.66052143663337       -0.11692803319511
C           -4.86548162533879       -1.33132089448927       -0.48877353274409
C           -3.61876439444795       -0.76175971050606       -0.45043524439369
C           -2.49219677663476       -1.51844612448479       -0.02079934066048
C           -1.17803049105643       -1.04369537498528        0.06440226845458
N           -0.12064346600635       -1.88724959844444        0.14192608856980
C            0.96668147673756       -1.15763201907914        0.05327484640175
C            2.31856432007790       -1.61250666436718        0.01344730348473
C            2.60660398587460       -2.97725334207785        0.01058007229586
C            3.91431573879466       -3.41528237642112       -0.07249139248471
C            4.93324146048664       -2.48056931840340       -0.16351584518796
C            4.65596100388503       -1.12359493888630       -0.15432231911063
C            3.34642578026730       -0.64352391566287       -0.05426268731368
C            3.02365290867887        0.77554552138021        0.00279515310775
C            4.01903413139583        1.74485625265860        0.05239450077521
C            3.73708371817738        3.09657226794647        0.14967954858496
C            2.40997366870171        3.52678906074846        0.22742524295572
C            1.39341388982281        2.61560536523058        0.17527820487452
C            1.65035858833626        1.22329424568094        0.04038695145477
C            0.65174099371844        0.25346987061450       -0.01753341303093
N           -0.72410267016490        0.30553716554169       -0.01007809317226
C           -1.54859158109814        1.43493304122409        0.00104228245258
C           -2.43883494746812        1.63485186304566        1.05757428422034
C           -3.26653076946887        2.74029103485938        1.05868547252813
C           -3.21950770798998        3.65237219766276        0.01541225613090
C           -2.33770060145203        3.45361101748129       -1.03694259845647
C           -1.50491503042104        2.35221899337443       -1.05072858687439
C           -2.71204229607054       -2.89016663312766        0.30883720166293
C           -3.96571596055192       -3.43414940595238        0.26797676273499
H           -6.05279219760668       -3.09146854060243       -0.14398053795308
H           -5.70691481827824       -0.74154595669611       -0.82385286580299
H           -3.49047819028907        0.25092115078048       -0.79440556096180
H            1.78072705493310       -3.66882033781562        0.06743145354006
H            4.13927048729470       -4.47098103398955       -0.07360814053126
H            5.95980819795977       -2.80853536093282       -0.24145720433091
H            5.48552978654630       -0.43917219914484       -0.23095418104600
H            5.05631395354661        1.45101611623653        0.02775057145537
H            4.54260296062333        3.81400819723283        0.18318994172956
H            2.18943326848704        4.57848693633337        0.33525583256808
H            0.37386416183024        2.95216859572495        0.26229262036397
H           -2.47131774043783        0.91797832156737        1.86441051257063
H           -3.95048454280601        2.89340977874874        1.88000921586313
H           -3.86931975274279        4.51407160570090        0.02000562803950
H           -2.30461339236651        4.15742762572088       -1.85533207141709
H           -0.82124962916911        2.18580093191412       -1.87057569969845
H           -1.85558106376894       -3.47210818685602        0.60806953987219
H           -4.11251170162872       -4.47028038243485        0.53673421000032
