  96
       -153.30313254
 N         -1.5930313279        5.9133829717       -2.0566421978
 C         -2.0742753165        4.9351298477       -1.7001497501
 C         -2.6758991335        3.7300333304       -1.2766760406
 C         -3.6296942103        3.1318144267       -2.0752205048
 C         -4.2030342308        1.9196895464       -1.6949830976
 C         -3.8491807534        1.3201687611       -0.5051380567
 N         -4.3540487528        0.0495700897       -0.1911647308
 C         -3.5722571433       -1.0852571544       -0.0638819737
 C         -2.1177358195       -1.0527976567       -0.1311934239
 C         -1.4432047274       -0.3301675062       -1.1125389196
 C         -0.0658864869       -0.2518152559       -1.0952759778
 C          0.6706878237       -0.8944084539       -0.1036643926
 C          2.1390619514       -0.7593498177       -0.0614191070
 C          2.7094342832        0.5043354152        0.1588150754
 C          1.9161631297        1.6596044151        0.3878039858
 C          2.4845273899        2.8860292902        0.5466049960
 C          3.8838324024        3.0371010351        0.4870035219
 C          4.6836536850        1.9505385828        0.3101125737
 C          4.1313207186        0.6513722529        0.1652309011
 C          4.9393039898       -0.4849264059        0.0130573126
 N          6.3394971294       -0.3484401476        0.0401945188
 C          7.0953129302        0.0287241013        1.1296881151
 C          6.6834721509        0.3401361304        2.4172245158
 C          7.6567686350        0.6760270372        3.3377831153
 C          9.0070941657        0.6979400036        2.9931124810
 C          9.4219058103        0.3781686290        1.7158894019
 C          8.4628993391        0.0378192572        0.7705928008
 C          8.5230628811       -0.3488831009       -0.6114695177
 C          9.5609297235       -0.5112458514       -1.5202281052
 C          9.2558155164       -0.8951846021       -2.8106275882
 C          7.9362370394       -1.1107135393       -3.2045030149
 C          6.8862230925       -0.9556900645       -2.3208839792
 C          7.1897951552       -0.5815987072       -1.0199926748
 C          4.3755968216       -1.7557275258       -0.1729257482
 C          5.1754411371       -2.9227090163       -0.2843956751
 C          4.6113905417       -4.1407112563       -0.5075251746
 C          3.2146595634       -4.2619135694       -0.6472715940
 C          2.4120932175       -3.1705450774       -0.5162049497
 C          2.9540455855       -1.8868625635       -0.2433360358
 C         -0.0041207584       -1.6576489256        0.8461480828
 C         -1.3810472334       -1.7410647173        0.8305073394
 N         -4.2889222636       -2.1558977752        0.1376821803
 C         -5.5878687826       -1.7470174587        0.1338124304
 C         -6.7566821210       -2.5473579450        0.2617979739
 C         -6.6720159030       -3.9357488051        0.4095448447
 C         -7.8128883054       -4.6943956482        0.4871581875
 C         -9.0565581796       -4.0698668995        0.4137689957
 C         -9.1512940569       -2.7048169181        0.2763132292
 C         -8.0088449425       -1.8931086455        0.2034188376
 C         -8.0758699680       -0.4459554190        0.0963559593
 C         -9.2985054251        0.2399517440        0.1262540951
 C         -9.3663430504        1.6121207854        0.0765410488
 C         -8.2001773733        2.3685641927        0.0148592949
 C         -6.9825676755        1.7358222229       -0.0271947593
 C         -6.8937815215        0.3366477205       -0.0124518372
 C         -5.6598738523       -0.3698783856       -0.0599481531
 C         -2.9140949506        1.9364790447        0.3709662537
 C         -2.5787767344        1.3923243724        1.6285064725
 C         -1.6354927488        1.9897046876        2.4167983921
 C         -0.9941634832        3.1629978246        1.9937033218
 C         -1.3272472433        3.7384498467        0.7987921993
 C         -2.2964838372        3.1470043863       -0.0358623531
 H         -3.9150102748        3.5910410134       -3.0099020806
 H         -4.9224500189        1.4375152616       -2.3406325208
 H         -1.9934527039        0.1619564085       -1.9009796949
 H          0.4515279503        0.3109047322       -1.8587713497
 H          0.8429224425        1.5509327219        0.4388193958
 H          1.8646248014        3.7544256443        0.7123659994
 H          4.3159929680        4.0211661345        0.5894727126
 H          5.7559836118        2.0682256618        0.2735221540
 H          5.6376440980        0.3222999245        2.6860942607
 H          7.3657195545        0.9260837712        4.3473973863
 H          9.7373254621        0.9668959025        3.7418354378
 H         10.4689716328        0.3892496459        1.4528332914
 H         10.5831188735       -0.3373968882       -1.2195342186
 H         10.0487008778       -1.0279689098       -3.5316972503
 H          7.7306435028       -1.4043022382       -4.2233940000
 H          5.8642094900       -1.1218017302       -2.6278203491
 H          6.2466150348       -2.8324618129       -0.1865457809
 H          5.2309877394       -5.0213718851       -0.5876711636
 H          2.7859824041       -5.2309742991       -0.8554941745
 H          1.3425111562       -3.2672505946       -0.6255200175
 H          0.5606237109       -2.1696918218        1.6116771152
 H         -1.9065484181       -2.3241387420        1.5710752937
 H         -5.6896078314       -4.3799897598        0.4498654285
 H         -7.7529608202       -5.7668600994        0.5981792638
 H         -9.9574454579       -4.6639984254        0.4666789540
 H        -10.1351263260       -2.2665670319        0.2211943284
 H        -10.2211551956       -0.3122260817        0.2020993105
 H        -10.3268894722        2.1050271721        0.1015737502
 H         -8.2511834188        3.4471796405        0.0058780665
 H         -6.0790778946        2.3253676120       -0.0515584166
 H         -3.0823082512        0.5006356720        1.9697343860
 H         -1.3814669737        1.5614938222        3.3744666997
 H         -0.2440361185        3.6142222116        2.6253348593
 H         -0.8565652780        4.6549969770        0.4735121780
