  79
  -128.092970020000        1.00000000000000      !
 C          0.8995072992        1.5888735232        2.9077937857
 C          2.2273293609        1.7152483253        2.5415142183
 C          2.7899905729        0.8258337257        1.6434146599
 C          2.0153759327       -0.1822780140        1.0448076064
 C          2.5859774392       -1.2286515504        0.2685516695
 N          3.9217512749       -1.1950729311       -0.1140419201
 C          4.8454091493       -2.2024892261        0.0850474621
 C          4.7161097555       -3.3877152387        0.7966520922
 C          5.8180299268       -4.2184899015        0.8707959449
 C          7.0266112156       -3.8793438185        0.2664856437
 C          7.1709216052       -2.6858205436       -0.4157976534
 C          6.0780328703       -1.8368375415       -0.5059488402
 C          5.8760708854       -0.5432642380       -1.0994753704
 C          6.6907151571        0.3072504417       -1.8324532566
 C          6.1564024303        1.4924954579       -2.3011414869
 C          4.8250375718        1.8232011475       -2.0582270461
 C          3.9937259155        0.9958079977       -1.3274210563
 C          4.5335339986       -0.1845148761       -0.8335456708
 C          1.8067973375       -2.3715048372       -0.0536901309
 C          0.4648787417       -2.3831225485        0.1520703732
 C         -0.1960603777       -1.2172101680        0.6666796167
 C         -1.5661792843       -1.0970095380        0.4083188808
 N         -2.3622375249       -2.1595997250        0.2105329836
 C         -3.5848400098       -1.6835549394       -0.0125292230
 C         -4.7868647838       -2.4290839096       -0.1908668029
 C         -4.7822688478       -3.8237753305       -0.1074112832
 C         -5.9541969964       -4.5317353913       -0.2337828237
 C         -7.1461812374       -3.8432169594       -0.4379083602
 C         -7.1600834824       -2.4684738582       -0.5301989888
 C         -5.9840031972       -1.7134952243       -0.4213205178
 C         -5.9558363250       -0.2675451242       -0.5624170593
 C         -7.1020910447        0.4554232972       -0.9074043694
 C         -7.0799030431        1.8188433879       -1.0999383122
 C         -5.8826843172        2.5206590933       -0.9760824962
 C         -4.7362496288        1.8546658493       -0.6281334128
 C         -4.7411077248        0.4665109498       -0.3873119149
 C         -3.5870885440       -0.2651895963       -0.0276804924
 N         -2.2970247759        0.1000212381        0.2587060270
 C         -1.7146536207        1.3748943016        0.2976304983
 C         -2.1775926603        2.3483240821        1.1818675853
 C         -1.4912947685        3.5361996673        1.3145630867
 C         -0.3317170793        3.7691543352        0.5847727882
 C          0.0949275139        2.8216485453       -0.3515856906
 C         -0.6002139191        1.6310026044       -0.4902265786
 O          1.1987132577        3.0158274918       -1.1374507936
 C          1.6877073420        4.3387472084       -1.1091341950
 C          1.6904490145        4.8659680412        0.3238438119
 O          0.3711223332        4.9213945854        0.8193952933
 C          0.6241011314       -0.2304480014        1.3318449224
 C          0.1135437744        0.6052935927        2.3195827137
 H          0.4700521023        2.2469762485        3.6477110396
 H          2.8416929288        2.4864426811        2.9848607431
 H          3.8441246249        0.8931246524        1.4198576777
 H          3.7908431340       -3.6464622680        1.2880353806
 H          5.7424391061       -5.1482778885        1.4146972095
 H          7.8644730888       -4.5558801703        0.3454154205
 H          8.1140714140       -2.4143451812       -0.8654811820
 H          7.7166146332        0.0412084690       -2.0376212069
 H          6.7732157267        2.1690560322       -2.8739689609
 H          4.4301428590        2.7449915526       -2.4596713609
 H          2.9623800215        1.2601691493       -1.1533856215
 H          2.2934914227       -3.2016277848       -0.5431364888
 H         -0.1528490188       -3.2061363096       -0.1663582727
 H         -3.8375303918       -4.3145856068        0.0668539857
 H         -5.9551395627       -5.6095260710       -0.1685687357
 H         -8.0733475469       -4.3911376996       -0.5256714985
 H         -8.1092584065       -1.9803440086       -0.6846691548
 H         -8.0393644990       -0.0595614779       -1.0438633813
 H         -7.9873745271        2.3407209279       -1.3648162758
 H         -5.8562447242        3.5845669711       -1.1594315644
 H         -3.8074494611        2.3974810369       -0.5603554233
 H         -3.0521489058        2.1551380910        1.7841727463
 H         -1.8157714408        4.2914505113        2.0118060600
 H         -0.2453765561        0.9020507468       -1.2013892685
 H          2.6972412391        4.3045939152       -1.5204623212
 H          1.0549004848        4.9848059664       -1.7329510879
 H          2.0845371856        5.8815851931        0.3739980230
 H          2.2963995182        4.1969855759        0.9501426781
 H         -0.9090195368        0.4779332227        2.6404377293
