  124
       -165.95981312
 C          7.2403866320        3.0327666083       -1.6745290630
 C          6.9580201568        2.5457862658       -0.2510980927
 C          6.6078241001        3.7695245742        0.6083314804
 C          8.2252400655        1.8685979770        0.2881951220
 C          5.7968786293        1.5677745089       -0.1877948123
 C          5.4001159002        1.0545140573        1.0453371324
 C          4.3047870514        0.2222290369        1.1644538549
 C          3.5732950218       -0.1264889526        0.0368310800
 N          2.3636922421       -0.8699731241        0.1410867349
 C          2.4020249206       -2.2420136677        0.2842117282
 C          3.6450928949       -2.8711242017        0.4285978173
 C          3.7303284681       -4.2237379710        0.6489588290
 C          2.5831743286       -5.0142730117        0.7559087289
 C          2.7242076638       -6.4986942554        1.0547765820
 C          3.5698341223       -7.1566095474       -0.0448568666
 C          1.3751007154       -7.2203185053        1.1074227983
 C          3.4157778739       -6.6723846687        2.4140253249
 C          1.3663503212       -4.3879863081        0.5717293768
 C          1.2249094710       -3.0221293582        0.2920211902
 B         -0.1161039969       -2.3131336014       -0.0116599279
 C         -1.5233517750       -2.8817984498       -0.3106352694
 C         -1.8056098683       -4.2275025615       -0.5813691227
 C         -3.0811984199       -4.7263670264       -0.7570532068
 C         -3.3758490959       -6.1919353008       -1.0361778455
 C         -2.1068942217       -7.0450811207       -1.1095567132
 C         -4.2572786135       -6.7491981706        0.0908089836
 C         -4.1124770199       -6.3113249746       -2.3774267433
 C         -4.1404986625       -3.8209399382       -0.6542511046
 C         -3.9155169080       -2.4826550572       -0.4452787102
 C         -2.6138727496       -1.9846749862       -0.3049342378
 N         -2.4347593244       -0.6234430398       -0.1671290533
 C         -3.5627431637        0.2390347705       -0.0606346315
 C         -3.9373952810        0.7221801372        1.1836793375
 C         -4.9455559483        1.6626473195        1.2946649377
 C         -5.6053367205        2.1465117987        0.1719541740
 C         -6.6616183277        3.2365822533        0.2412744114
 C         -6.9193877102        3.7161986371        1.6718462448
 C         -6.1713059462        4.4370643952       -0.5816301173
 C         -7.9816788935        2.7072095577       -0.3352570963
 C         -5.2475386319        1.6171322555       -1.0663271172
 C         -4.2415312124        0.6793625844       -1.1891787743
 C         -1.2026736357       -0.0099629600       -0.1114250079
 C         -1.1221551414        1.3793870892       -0.1648959526
 C          0.1051580036        2.0091796005       -0.0031885103
 N          0.1747089613        3.4083249155        0.0054231034
 C          1.3177512769        4.0552312264       -0.4712700354
 C          1.7948779076        5.2042567017        0.1606293822
 C          2.9383816517        5.8295891328       -0.2967057449
 C          3.6298034121        5.3224460816       -1.3848610277
 C          3.1576741685        4.1857052831       -2.0210581249
 C          2.0116628420        3.5584775265       -1.5759569755
 C         -0.9010336486        4.1558607279        0.4928222460
 C         -1.6324047364        3.7171267686        1.5978066729
 C         -2.7135212075        4.4440170185        2.0535652129
 C         -3.0814435604        5.6240924777        1.4276573455
 C         -2.3517291803        6.0730205026        0.3388476009
 C         -1.2730301824        5.3482320822       -0.1290320281
 C          1.2622058734        1.2567148908        0.1517948180
 C          1.2006245929       -0.1333181301        0.0886259466
 C         -0.0382416472       -0.7994053126       -0.0128397979
 C          3.9835264155        0.3375573036       -1.2037020020
 C          5.0805924068        1.1729648115       -1.3107813051
 H          7.5128876910        2.2059983223       -2.3264295708
 H          6.3744255902        3.5454326071       -2.0857273491
 H          8.0717083941        3.7345542559       -1.6585073121
 H          6.4809225990        3.4980045359        1.6524877416
 H          5.6805961335        4.2188145639        0.2576741966
 H          7.4007802729        4.5114363616        0.5441008603
 H          9.0656686615        2.5577248537        0.2432541936
 H          8.0986716783        1.5539937950        1.3203094503
 H          8.4658958154        0.9912693315       -0.3087789942
 H          5.9401900998        1.3211643207        1.9408471361
 H          3.9972984378       -0.1453999682        2.1326751003
 H          4.5519478976       -2.2870286581        0.3737805067
 H          4.7102437371       -4.6646500449        0.7566929863
 H          3.6588157863       -8.2256087946        0.1378826580
 H          4.5698894123       -6.7341456668       -0.0819195641
 H          3.1015646495       -7.0096287118       -1.0160271287
 H          0.8638861677       -7.1519136177        0.1505973757
 H          0.7391219913       -6.8056160641        1.8859454552
 H          1.5347436339       -8.2738763338        1.3289721942
 H          3.5264112777       -7.7291737401        2.6488870180
 H          2.8242466489       -6.2037446582        3.1979372747
 H          4.4024832406       -6.2174974961        2.4146073686
 H          0.4608468757       -4.9584330630        0.6652407341
 H         -0.9639232842       -4.8886352409       -0.6739372338
 H         -1.5722939775       -7.0236411072       -0.1633951003
 H         -1.4483204843       -6.6993667074       -1.9029403029
 H         -2.3752193945       -8.0785267928       -1.3206014144
 H         -5.2061090113       -6.2233212446        0.1477261259
 H         -4.4620773238       -7.8045197213       -0.0779770359
 H         -3.7515585113       -6.6439133184        1.0485847159
 H         -3.4975456923       -5.9088979574       -3.1799490419
 H         -5.0515960617       -5.7652284182       -2.3617616686
 H         -4.3283712934       -7.3550583269       -2.5969877271
 H         -5.1609773982       -4.1594449538       -0.7561460641
 H         -4.7567672335       -1.8070722153       -0.3948837136
 H         -3.4172897193        0.3734202322        2.0639175259
 H         -5.1986330246        2.0223211959        2.2776028298
 H         -7.6775445254        4.4965392306        1.6607952804
 H         -7.2827238480        2.9052426415        2.2988465170
 H         -6.0147445697        4.1315651470        2.1087732823
 H         -6.8845991246        5.2553983900       -0.5117327224
 H         -6.0536053500        4.1775941849       -1.6299673252
 H         -5.2092488383        4.7795199296       -0.2052646356
 H         -8.7470879588        3.4785217305       -0.2857026190
 H         -8.3225577634        1.8454374534        0.2349421574
 H         -7.8697221031        2.4063851342       -1.3731083777
 H         -5.7466410362        1.9530749136       -1.9622854430
 H         -3.9618172663        0.2980051411       -2.1604940218
 H         -2.0022678518        1.9799486237       -0.3206071244
 H          1.2651874121        5.5967723991        1.0164109644
 H          3.2986786439        6.7142366341        0.2076232443
 H          4.5244636361        5.8137330534       -1.7374578043
 H          3.6792417079        3.7893704707       -2.8800511120
 H          1.6432729581        2.6777994562       -2.0795721064
 H         -1.3447859347        2.8020093505        2.0926381073
 H         -3.2656554265        4.0909546034        2.9123342677
 H         -3.9248232719        6.1936860389        1.7887544760
 H         -2.6314321182        6.9908619682       -0.1573652742
 H         -0.7131266835        5.6963543175       -0.9848317605
 H          2.1985959759        1.7633231978        0.3132700994
 H          3.4219560674        0.0589249542       -2.0834552923
 H          5.3592941698        1.5225006065       -2.2904236067
