59
 energy: -98.046825294618 gnorm: 0.000184925537 xtb: 6.7.1 (edcfbbe)
C            3.83576611671568       -3.34594169675651        2.28464924268933
C            2.77588921063989       -2.47774452604892        2.53554525015559
C            2.69838176684249       -1.23575124338359        1.93396045063597
C            3.70968921488399       -0.87389456467120        1.05531709227513
C            4.80648003473216       -1.73770603952654        0.82298287797172
C            4.86256977237694       -2.98185568300271        1.43739092276993
C            5.69264091623150       -1.03895422912792       -0.06116018367540
C            6.90966157049992       -1.30999966389220       -0.66594607155748
C            7.44920061642075       -0.32483013483012       -1.47793418597028
C            6.76396128054972        0.87356987730035       -1.65515569220991
N            5.60198590361968        1.16197091105180       -1.09183741119375
C            5.09081555183805        0.22125899243610       -0.31535300117156
N            3.89096407558168        0.30324387872507        0.34881984390430
C            2.99366312206348        1.37806748677602        0.26196283329817
C            3.48752964942793        2.68652060422861        0.29613610660680
C            2.63152383325912        3.76292184441811        0.19963653430015
C            1.27120030568910        3.52587507906847        0.08229742369508
S            0.02164672163978        4.74285707472100       -0.05132614906418
C           -1.20648392926495        3.50308129952762       -0.16275563198060
C           -2.56653414421824        3.71485306895414       -0.31993602136804
C           -3.40524812594947        2.62208985993234       -0.39118514185064
C           -2.89587125209283        1.32317599211532       -0.28278608756268
N           -3.76316029944417        0.22286056272168       -0.34991887148034
C           -5.02535541064553        0.12120925784442        0.21141270205504
C           -5.68169932565498        0.97797253283465        1.08383557641709
C           -6.94307376851878        0.61837589541994        1.51986463505093
C           -7.54521101254135       -0.56992317602306        1.11332362269378
C           -6.88573641834998       -1.44547549030733        0.27473685429863
C           -5.61638514138933       -1.10559232265661       -0.17430480795681
C           -4.65437512638180       -1.77809092148765       -0.99748126819411
C           -4.60028754943401       -2.98359215952267       -1.67881586487610
C           -3.43631608434197       -3.26832844368791       -2.37536249417960
C           -2.38750214170788       -2.35363129532521       -2.36750012607767
N           -2.40947554992826       -1.19507865031519       -1.72835765988100
C           -3.52113593579490       -0.92618772497699       -1.06399434869713
C           -1.53265996537824        1.11260415362531       -0.14361820189308
C           -0.67473329429856        2.20385634963441       -0.09225120506599
C            0.75892095849083        2.21828056469035        0.04362041189394
C            1.63464020134157        1.14183604771864        0.12029645919172
H            3.85686757136541       -4.30928185997999        2.77174844425791
H            1.99782650468596       -2.77957839407685        3.22100377005853
H            1.88391759648632       -0.56521646433311        2.16048905723685
H            5.69734561156501       -3.64232560225190        1.25754498817869
H            7.41615188240088       -2.25160163216059       -0.51096205371425
H            8.39473671480134       -0.47806080990667       -1.97401830403516
H            7.17015347193349        1.65329356511090       -2.28539461369835
H            4.54997293063144        2.84219711481178        0.38251389660647
H            3.00963543114134        4.77283771649002        0.21893341821759
H           -2.95794287155529        4.71705070553930       -0.39806722377526
H           -4.46141986117947        2.76780575576114       -0.55547630272330
H           -5.21952643381644        1.88887610631240        1.43132137079887
H           -7.47200945519958        1.27315317437398        2.19641283975835
H           -8.53418682148937       -0.81159296819067        1.47267608515680
H           -7.33834826227786       -2.37909281993173       -0.02337488897236
H           -5.43184534108609       -3.67308192312717       -1.66637785792046
H           -3.33526202916290       -4.19225704473613       -2.92282595826278
H           -1.47126478517367       -2.55979264998201       -2.90438764386937
H           -1.14723251068293        0.10806360520979       -0.09326938192825
H            1.25654630910748        0.13470205685276        0.04270194462504
