59
 energy: -98.047444701347 gnorm: 0.000034268525 xtb: 6.7.1 (edcfbbe)
C            7.46277872164223       -0.43524100811044        2.00759901348710
C            6.82639330394605        0.80098663526221        2.09024771738310
C            5.60834346386722        1.03119234135115        1.47890561166770
C            5.03253798352376       -0.00905836255804        0.76339901313177
C            5.65624973330930       -1.27833611796056        0.70722800769997
C            6.88131667984613       -1.48594738750035        1.32734888318826
C            4.77101933592205       -2.13306134531936       -0.02861734313914
C            4.77761513325384       -3.45848794378298       -0.43302327993060
C            3.67956349193691       -3.91073579829930       -1.14793109497943
C            2.63378659091541       -3.03710341269661       -1.42979338977657
N            2.59868079387806       -1.76713643560395       -1.05942901177033
C            3.64730723925820       -1.33869845479692       -0.37621010572996
N            3.82470898420084       -0.05756637450015        0.08810328286582
C            2.95012046316244        1.00967423684882       -0.16368357042844
C            3.45605073322961        2.26384713976992       -0.52305102904566
C            2.60431375223482        3.31652410809238       -0.78772944228806
C            1.23713200583384        3.10423864817760       -0.71422855079211
S           -0.01055872976230        4.28693043961015       -1.03693707947147
C           -1.25423500961383        3.09128654800170       -0.74343113846623
C           -2.62270786858984        3.29620118170867       -0.82159803490223
C           -3.46892207349469        2.23393391792973       -0.58278396156520
C           -2.95680421819168        0.97467678993238       -0.25190192387765
N           -3.83878559031954       -0.09009319208255       -0.01740637514184
C           -3.66720740390104       -1.40786934340348       -0.40988925099392
C           -2.69005380430638       -1.97557656553108       -1.21566847873429
C           -2.77096802483235       -3.33085525279573       -1.47455504452213
C           -3.80117858360933       -4.11344222176541       -0.95860869045799
C           -4.79563684268558       -3.55143597166225       -0.18412526864608
C           -4.73566171775233       -2.19092138903304        0.08827485640404
C           -5.59422217138724       -1.29574485838867        0.80728450389880
C           -6.77724939958374       -1.41177065354816        1.51942933155306
C           -7.29834842989178       -0.25573926088600        2.07911630929490
C           -6.62854164476669        0.95276476992470        1.91260742700292
N           -5.49855221988456        1.09581073636517        1.23911800180284
C           -5.00558977295390       -0.00820814557850        0.70295305323509
C           -1.58873466518519        0.77998802137742       -0.13913291167824
C           -0.72501894606960        1.83628026166584       -0.40050964662847
C            0.71418451750129        1.84328330060812       -0.38032300403836
C            1.58214207856755        0.79750080790100       -0.09576261925134
H            8.41591630983075       -0.57286396124091        2.49565747738743
H            7.29275874219225        1.59785689434793        2.65032262394584
H            5.11595663978352        1.98632598443992        1.57586325047019
H            7.35988472328987       -2.45250823744786        1.28118586376420
H            5.60537178979798       -4.11236577064267       -0.20007692549764
H            3.62773510254687       -4.93340197563107       -1.48711982349165
H            1.76806241417210       -3.37334428280487       -1.98458993170816
H            4.52182671537311        2.40036227689313       -0.61965741622403
H            2.99287526170558        4.28409018906289       -1.06443489110635
H           -3.01535041829114        4.26830800599546       -1.07486112716750
H           -4.53666560062263        2.36604422386069       -0.63699065452106
H           -1.89885978238984       -1.38187277703367       -1.64624196062943
H           -2.01875685535342       -3.79237037666157       -2.09688683798963
H           -3.82570017393756       -5.16972934638762       -1.18104994329522
H           -5.60858502924797       -4.14959541820819        0.19898682478573
H           -7.27260505585611       -2.36503721588977        1.63376334171980
H           -8.21769400088387       -0.28386358665521        2.64271298666758
H           -7.02035007613899        1.86461985480105        2.34295653225240
H           -1.19193573795156       -0.17611421869446        0.16306128060731
H            1.20196429538359       -0.17808635684776        0.15665300822293
