  45
        -78.59226933
 O          3.9680337013       -2.4045827598       -0.8581650386
 S          2.9848416370       -1.3687275840       -1.0703302128
 O          2.5513617273       -1.1091763620       -2.4238375031
 C          3.5337152392        0.1473107167       -0.3164901712
 C          4.4294795536        0.1196821004        0.7539532244
 C          4.6792387996        1.2985804373        1.4279186420
 C          4.0114959379        2.4502201368        1.0217417391
 N          3.1559067648        2.4740296378        0.0007085657
 C          2.9271772032        1.3546904221       -0.6504828659
 C          1.5592443221       -1.6588035168       -0.0451521107
 C          1.6698992755       -2.3560070887        1.1598468451
 C          0.6165037933       -2.3512706004        2.0475100508
 C         -0.5430328146       -1.6292936537        1.7709389665
 C         -0.6364212869       -0.9257378341        0.5636604701
 N         -1.7841683984       -0.1419450424        0.2814144810
 C         -1.6468301001        1.2181565334        0.1409796342
 C         -0.4353889198        1.8933596441        0.3474402749
 C         -0.3427340255        3.2477440997        0.1530066746
 C         -1.4727360843        3.9937931767       -0.2408328489
 C         -2.6871845578        3.3695517375       -0.4041907931
 C         -2.8015320235        1.9949892265       -0.2120423508
 O         -4.0154183097        1.4247728491       -0.3551802476
 C         -4.1415260738        0.0916662901       -0.1941569457
 C         -5.4023415620       -0.4783118234       -0.3540325220
 C         -5.5665073205       -1.8383891287       -0.2407540893
 C         -4.4527635213       -2.6651195900        0.0138696876
 C         -3.2022527964       -2.1235941778        0.1784303326
 C         -3.0094207544       -0.7377655721        0.1091264584
 C          0.4032474105       -0.9471013158       -0.3454300532
 H          4.9077127715       -0.8116728319        1.0133472544
 H          5.3720980029        1.3314018925        2.2542898902
 H          4.1619335429        3.3954925064        1.5233137954
 H          2.2419595071        1.4046776692       -1.4848531464
 H          2.5827131178       -2.8924256922        1.3611750151
 H          0.6892600313       -2.8947259106        2.9770391853
 H         -1.3536309138       -1.5896390586        2.4811745748
 H          0.4342703638        1.3372453214        0.6577343446
 H          0.6074856070        3.7356925791        0.2972726161
 H         -1.3840910360        5.0557752445       -0.4000543806
 H         -3.5737445208        3.9176757755       -0.6815376276
 H         -6.2307849502        0.1763572947       -0.5734254646
 H         -6.5426214315       -2.2783935987       -0.3621119255
 H         -4.5851409001       -3.7332088485        0.0725161355
 H         -2.3511513174       -2.7613928931        0.3578231259
 H          0.3392984625       -0.4281604188       -1.2878736338
