  45
  -78.3570173493000       0.183922726147639      !
 O          3.9680337013       -2.4045827598       -0.8581650386
 S          2.9848416370       -1.3687275840       -1.0703302128
 O          2.5513617273       -1.1091763620       -2.4238375031
 C          3.5337152392        0.1473107167       -0.3164901712
 C          4.4294795536        0.1196821004        0.7539532244
 C          4.6792387996        1.2985804373        1.4279186420
 C          4.0114959379        2.4502201368        1.0217417391
 N          3.1559067648        2.4740296378        0.0007085657
 C          2.9271772032        1.3546904221       -0.6504828659
 C          1.5592443221       -1.6588035168       -0.0451521107
 C          1.6698992755       -2.3560070887        1.1598468451
 C          0.6165037933       -2.3512706004        2.0475100508
 C         -0.5430328146       -1.6292936537        1.7709389665
 C         -0.6364212869       -0.9257378341        0.5636604701
 N         -1.7841683984       -0.1419450424        0.2814144810
 C         -1.6468301001        1.2181565334        0.1409796342
 C         -0.4353889198        1.8933596441        0.3474402749
 C         -0.3427340255        3.2477440997        0.1530066746
 C         -1.4727360843        3.9937931767       -0.2408328489
 C         -2.6871845578        3.3695517375       -0.4041907931
 C         -2.8015320235        1.9949892265       -0.2120423508
 O         -4.0154183097        1.4247728491       -0.3551802476
 C         -4.1415260738        0.0916662901       -0.1941569457
 C         -5.4023415620       -0.4783118234       -0.3540325220
 C         -5.5665073205       -1.8383891287       -0.2407540893
 C         -4.4527635213       -2.6651195900        0.0138696876
 C         -3.2022527964       -2.1235941778        0.1784303326
 C         -3.0094207544       -0.7377655721        0.1091264584
 C          0.4032474105       -0.9471013158       -0.3454300532
 H          4.9077127715       -0.8116728319        1.0133472544
 H          5.3720980029        1.3314018925        2.2542898902
 H          4.1619335429        3.3954925064        1.5233137954
 H          2.2419595071        1.4046776692       -1.4848531464
 H          2.5827131178       -2.8924256922        1.3611750151
 H          0.6892600313       -2.8947259106        2.9770391853
 H         -1.3536309138       -1.5896390586        2.4811745748
 H          0.4342703638        1.3372453214        0.6577343446
 H          0.6074856070        3.7356925791        0.2972726161
 H         -1.3840910360        5.0557752445       -0.4000543806
 H         -3.5737445208        3.9176757755       -0.6815376276
 H         -6.2307849502        0.1763572947       -0.5734254646
 H         -6.5426214315       -2.2783935987       -0.3621119255
 H         -4.5851409001       -3.7332088485        0.0725161355
 H         -2.3511513174       -2.7613928931        0.3578231259
 H          0.3392984625       -0.4281604188       -1.2878736338
  45
  -78.3565853745000       0.116443036669843      !
 O          3.1188696810        0.4536095220       -2.0722326924
 S          3.4077374146        0.0383942707       -0.7186629086
 O          4.7170940490        0.3234318476       -0.1848360458
 C          3.0333407955       -1.6934354890       -0.5476923608
 C          2.1047299057       -2.2961401562       -1.3988926362
 C          1.7082285088       -3.5904825411       -1.1225676544
 C          2.2437598082       -4.2232893544       -0.0062467688
 N          3.1295656657       -3.6439128784        0.8037418126
 C          3.5104589716       -2.4138457371        0.5416332687
 C          2.1613944030        0.6829717927        0.3780836027
 C          2.4563099173        0.9640465034        1.7121515280
 C          1.4344655133        1.2606447285        2.5876267194
 C          0.1087449165        1.2493958436        2.1589233508
 C         -0.1730084468        0.9489497138        0.8219820045
 N         -1.5203842747        0.8843661537        0.3789155028
 C         -2.2778895234        2.0262299380        0.3022394970
 C         -1.7783434158        3.2958081884        0.6200795278
 C         -2.5822432389        4.4048148831        0.5329071427
 C         -3.9236039691        4.2894266429        0.1115442885
 C         -4.4334209565        3.0612412628       -0.2363728812
 C         -3.6349112184        1.9226554523       -0.1567855693
 O         -4.1613218189        0.7399549255       -0.5337543997
 C         -3.4018409852       -0.3726921818       -0.4698933398
 C         -3.9640482617       -1.5834559978       -0.8664642696
 C         -3.2334282279       -2.7451335163       -0.7880782468
 C         -1.9137304341       -2.7165773407       -0.2891211295
 C         -1.3377269734       -1.5340683709        0.1006825553
 C         -2.0469061377       -0.3285723106        0.0074464136
 C          0.8452284181        0.6740094735       -0.0698276314
 H          1.7398626871       -1.7476247427       -2.2530091877
 H          1.0013523836       -4.1016733837       -1.7578769997
 H          1.9652976156       -5.2330554579        0.2594908724
 H          4.2332497578       -1.9674730613        1.2100655098
 H          3.4885340037        0.9511394835        2.0217058397
 H          1.6536143162        1.4890072398        3.6191466001
 H         -0.6981764309        1.4509852696        2.8455775690
 H         -0.7493107900        3.3895599913        0.9298009960
 H         -2.1842867881        5.3751350067        0.7812339813
 H         -4.5421657686        5.1695841245        0.0509475274
 H         -5.4490896734        2.9458090072       -0.5801530824
 H         -4.9807102088       -1.5767327553       -1.2265653851
 H         -3.6687221429       -3.6813853060       -1.0964673393
 H         -1.3523779979       -3.6331850855       -0.2073475322
 H         -0.3302069725       -1.5248437415        0.4859886733
 H          0.6419924122        0.4587330086       -1.1063687105
  45
  -78.3564207276000       9.782436702124470E-002 !
 O          3.0629858669        1.5207880310       -1.1048794261
 S          3.3488781597        0.5697222986       -0.0553604859
 O          4.4930971822        0.8130252096        0.7885812005
 C          3.4517984970       -1.0644310444       -0.7499578340
 C          2.7049745931       -1.3955151389       -1.8818136623
 C          2.6973636653       -2.7125379958       -2.2977610376
 C          3.4261891978       -3.6434336531       -1.5636660414
 N          4.1361047493       -3.3231730005       -0.4836401100
 C          4.1457752042       -2.0704199647       -0.0859876383
 C          1.8942425462        0.3680342898        0.9509885758
 C          1.9925593569       -0.1620054621        2.2375349198
 C          0.8474701653       -0.4666156489        2.9390866550
 C         -0.4081278904       -0.2618828318        2.3672575405
 C         -0.4886619451        0.2660847722        1.0767264625
 N         -1.7651146321        0.4813258620        0.4820974746
 C         -2.3251103149        1.7310817615        0.5089463983
 C         -1.7140641282        2.8235436266        1.1377251411
 C         -2.3171937915        4.0557337882        1.1330215440
 C         -3.5623700526        4.2446680220        0.4954491341
 C         -4.1886867727        3.1896656283       -0.1249737066
 C         -3.5968304733        1.9292291161       -0.1306261090
 O         -4.2401505851        0.9138736252       -0.7428797216
 C         -3.6741953220       -0.3103114451       -0.7656301245
 C         -4.3451092687       -1.3454036206       -1.4126056751
 C         -3.7913024758       -2.6025278002       -1.4644482552
 C         -2.5359452422       -2.8502883892       -0.8683795205
 C         -1.8567487960       -1.8451952888       -0.2262687972
 C         -2.4006914321       -0.5572324271       -0.1472376967
 C          0.6510891999        0.5780601882        0.3631772228
 H          2.1735645511       -0.6180678402       -2.4082963075
 H          2.1423664040       -3.0176465068       -3.1714858828
 H          3.4532618021       -4.6866973095       -1.8439092768
 H          4.7362700627       -1.8327683918        0.7876205582
 H          2.9738785719       -0.3067367374        2.6589472014
 H          0.9135715047       -0.8681276933        3.9383882736
 H         -1.3102547627       -0.5000849630        2.9079410055
 H         -0.7606714637        2.6792757977        1.6216418288
 H         -1.8366030362        4.8893046347        1.6186847813
 H         -4.0202624352        5.2201217109        0.4979255630
 H         -5.1411774614        3.3064957303       -0.6172148769
 H         -5.2991367759       -1.1274442090       -1.8659536066
 H         -4.3116110336       -3.4027547260       -1.9645954401
 H         -2.1072247697       -3.8378129690       -0.9209506297
 H         -0.8940522577       -2.0333353587        0.2241356530
 H          0.6014616995        0.9958831057       -0.6292446435
  45
  -78.3562576444000       8.231883148106282E-002 !
 O          3.5122786155       -2.9140544938       -0.3902371138
 S          2.7613178610       -1.7515975457       -0.8035093743
 O          2.1847093735       -1.7532039773       -2.1279296285
 C          3.7639752025       -0.2978868916       -0.5835730943
 C          4.8604838762       -0.3189376777        0.2782484769
 C          5.5195642155        0.8703053610        0.5240170183
 C          5.0493987143        2.0270837699       -0.0876876949
 N          3.9983546748        2.0444646300       -0.9063299992
 C          3.3740212155        0.9123036904       -1.1449341010
 C          1.4684666819       -1.4188940730        0.3744255893
 C          1.6921937832       -1.6091897272        1.7390210444
 C          0.7395601217       -1.2055245222        2.6480046352
 C         -0.4421496831       -0.6061165487        2.2157575146
 C         -0.6534419408       -0.4258602728        0.8446004310
 N         -1.8692151336        0.1601838982        0.3968011245
 C         -2.0847389839        1.5022671774        0.5809107775
 C         -1.1304715833        2.3566678343        1.1481553590
 C         -1.4020837654        3.6908320435        1.3191665435
 C         -2.6451093576        4.2286566649        0.9217016865
 C         -3.5914746290        3.4207671083        0.3381680784
 C         -3.3352448832        2.0644586477        0.1498783873
 O         -4.2762785543        1.3072281019       -0.4488398534
 C         -4.0395697109       -0.0047090948       -0.6509895608
 C         -5.0190630744       -0.7681011309       -1.2812360287
 C         -4.8240569683       -2.1135642068       -1.4831295266
 C         -3.6335041998       -2.7303605151       -1.0412943444
 C         -2.6540825334       -1.9978635307       -0.4205201358
 C         -2.8144411569       -0.6204096407       -0.2176791569
 C          0.2977034721       -0.8189375620       -0.0757224189
 H          5.1704967823       -1.2574257355        0.7104789429
 H          6.3793639748        0.9056238437        1.1749168768
 H          5.5250968199        2.9836755190        0.0741235264
 H          2.5300155958        0.9492300002       -1.8194938093
 H          2.6070238068       -2.0864110282        2.0503867843
 H          0.8996327630       -1.3553363479        3.7045849517
 H         -1.1963010598       -0.2940983464        2.9207274143
 H         -0.1754728078        1.9502863928        1.4430918357
 H         -0.6578952620        4.3368743670        1.7554812400
 H         -2.8441918571        5.2776011890        1.0673947217
 H         -4.5428926753        3.8081092788        0.0096201308
 H         -5.9232784460       -0.2728389567       -1.5980330683
 H         -5.5808876081       -2.7033810566       -1.9734416415
 H         -3.4943978252       -3.7881952688       -1.1938775965
 H         -1.7465540370       -2.4734390779       -0.0839534963
 H          0.1517454580       -0.6887903104       -1.1358304371
  45
  -78.3562537693000       8.198196513953759E-002 !
 O          3.6911144052       -2.3627278664       -1.2954401755
 S          2.9126005129       -1.1509465040       -1.1898732592
 O          2.4393645951       -0.5452042014       -2.4129299227
 C          3.8042101014        0.0410292056       -0.2144043381
 C          4.8221654042       -0.3746816197        0.6449344720
 C          5.3465491211        0.5487931843        1.5291586781
 C          4.8243922960        1.8370308809        1.5289504464
 N          3.8532890884        2.2320012354        0.7047535720
 C          3.3582014298        1.3552162891       -0.1408602096
 C          1.5234448403       -1.3908816718       -0.1011840091
 C          1.7000561070       -2.0306860887        1.1282093468
 C          0.6842857043       -2.0091454491        2.0574999600
 C         -0.5120964526       -1.3479205029        1.7860640558
 C         -0.6795006870       -0.7184800168        0.5462153255
 N         -1.8941442179       -0.0515802112        0.2467220782
 C         -1.8825177994        1.2963424103       -0.0169244358
 C         -0.7347305946        2.0935274137        0.1044382323
 C         -0.7737192366        3.4289112515       -0.2052451131
 C         -1.9718452352        4.0320446156       -0.6440219301
 C         -3.1246204866        3.2881944354       -0.7290197539
 C         -3.1097462976        1.9328459231       -0.4098965549
 O         -4.2696465376        1.2481435622       -0.4670974068
 C         -4.2747589065       -0.0677249306       -0.1746154618
 C         -5.4857659552       -0.7540910530       -0.2375520051
 C         -5.5296553039       -2.1050325875        0.0098203422
 C         -4.3412272295       -2.8072047033        0.2996744756
 C         -3.1382746422       -2.1498668915        0.3681420776
 C         -3.0666065846       -0.7648966631        0.1682010879
 C          0.3357523150       -0.7321311548       -0.3917197350
 H          5.1756579181       -1.3920833590        0.5849832905
 H          6.1401079398        0.2791305993        2.2087698902
 H          5.1912292153        2.5935968710        2.2076725550
 H          2.5753009340        1.6984922274       -0.8035698723
 H          2.6332037103       -2.5341812248        1.3210766096
 H          0.8119103075       -2.4978125593        3.0111067126
 H         -1.2986566922       -1.3034791295        2.5225442805
 H          0.1836920900        1.6453389503        0.4488014754
 H          0.1198642156        4.0239415136       -0.1088159144
 H         -1.9825666283        5.0794261728       -0.8967381818
 H         -4.0611441059        3.7262517037       -1.0361595035
 H         -6.3727094085       -0.1945039595       -0.4890646361
 H         -6.4669917074       -2.6346990974       -0.0339687303
 H         -4.3780388988       -3.8722656029        0.4612253053
 H         -2.2321646393       -2.6976694667        0.5727463340
 H          0.2290082359       -0.2549614600       -1.3525720197
  45
  -78.3561893145000       7.657675329409090E-002 !
 O          3.4203104553        0.8466987474       -1.5887744432
 S          3.4928142429        0.0368991636       -0.3940967000
 O          4.7443191410       -0.0033047752        0.3221151590
 C          2.9334288071       -1.6103263673       -0.7760906320
 C          2.1082102220       -1.8266176005       -1.8818911859
 C          1.5338100870       -3.0742946315       -2.0347555856
 C          1.7991284763       -4.0461830863       -1.0773654163
 N          2.5894421868       -3.8366519348       -0.0237995871
 C          3.1368040667       -2.6504949861        0.1229340201
 C          2.1857869782        0.5003259070        0.7267485294
 C          2.3856324002        0.5024411451        2.1068131658
 C          1.3082581611        0.6643609458        2.9511087679
 C          0.0188069062        0.7875286295        2.4384336047
 C         -0.1684829397        0.7615192478        1.0524418818
 N         -1.4789933456        0.8225930403        0.5092018164
 C         -2.2060341884        1.9837715618        0.5834132452
 C         -1.7145809390        3.1549771742        1.1740398155
 C         -2.4869569158        4.2880812013        1.2260569086
 C         -3.7868150279        4.2984228976        0.6765859607
 C         -4.2851208043        3.1738373804        0.0636287717
 C         -3.5179276479        2.0128426801       -0.0020283763
 O         -4.0275678047        0.9393704581       -0.6386905963
 C         -3.2978332664       -0.1917683996       -0.7173356746
 C         -3.8407100847       -1.2880258761       -1.3830520375
 C         -3.1414903445       -2.4689700613       -1.4576745173
 C         -1.8750086327       -2.5801544715       -0.8439362001
 C         -1.3171211120       -1.5103552466       -0.1913780406
 C         -1.9920504515       -0.2836034217       -0.1223167072
 C          0.9075545308        0.6305734074        0.1965334621
 H          1.9582266819       -1.0267064078       -2.5899857945
 H          0.8937611672       -3.2911808310       -2.8759312127
 H          1.3738730526       -5.0375451097       -1.1446805286
 H          3.7742279182       -2.5049889865        0.9843347072
 H          3.3905147093        0.3835454453        2.4777822061
 H          1.4552833528        0.6802995510        4.0199490903
 H         -0.8323891627        0.8819966515        3.0939996413
 H         -0.7165044359        3.1541302713        1.5835214138
 H         -2.0965705690        5.1815838860        1.6853416187
 H         -4.3815886706        5.1954276860        0.7287325931
 H         -5.2672386524        3.1589016467       -0.3817025868
 H         -4.8176610248       -1.1790418154       -1.8267293733
 H         -3.5618802538       -3.3164266809       -1.9734816857
 H         -1.3403768547       -3.5152126978       -0.8838366548
 H         -0.3510388016       -1.6083737314        0.2782281002
 H          0.7730903230        0.6240714950       -0.8729769603
  45
  -78.3561489560000       7.337522850671520E-002 !
 O          3.6209719076       -2.8180871173       -0.5254699984
 S          2.8051525304       -1.6794090418       -0.8770631404
 O          2.2540532806       -1.6272392475       -2.2114348394
 C          3.7057453518       -0.1822123070       -0.5357880711
 C          4.8167376188       -0.1990641898        0.3071379565
 C          5.3859598562        1.0094994098        0.6603012999
 C          4.8143975895        2.1791243424        0.1716643424
 N          3.7489408171        2.1922119539       -0.6283992885
 C          3.2114729538        1.0423277782       -0.9707477206
 C          1.4776640521       -1.4962392539        0.2944087832
 C          1.6738844927       -1.8072270593        1.6404334442
 C          0.6991120388       -1.4946845374        2.5615486274
 C         -0.4760681366       -0.8598194635        2.1605002246
 C         -0.6564270259       -0.5555041442        0.8086385918
 N         -1.8575738589        0.0844822749        0.3881476867
 C         -1.9684941538        1.4462370164        0.4889510997
 C         -0.9365327938        2.2590593724        0.9749451422
 C         -1.1021872017        3.6184562088        1.0597229748
 C         -2.3138868637        4.2214593811        0.6579161549
 C         -3.3394844476        3.4511114536        0.1639481561
 C         -3.1921070375        2.0695434514        0.0638548111
 O         -4.2099564230        1.3442949568       -0.4423651965
 C         -4.0746558123        0.0080426231       -0.5637417713
 C         -5.1257044144       -0.7246190098       -1.1095238502
 C         -5.0232983830       -2.0893372690       -1.2386304780
 C         -3.8538932948       -2.7572088757       -0.8136344302
 C         -2.8054202624       -2.0562238735       -0.2744724806
 C         -2.8765954705       -0.6636954026       -0.1381557914
 C          0.3118723184       -0.8634591690       -0.1248117933
 H          5.2047557839       -1.1473110630        0.6439930835
 H          6.2535452656        1.0499762908        1.3006251508
 H          5.2161374851        3.1505009896        0.4223388495
 H          2.3537243730        1.0787222876       -1.6279375190
 H          2.5880588296       -2.3015285397        1.9265630485
 H          0.8377251036       -1.7397652732        3.6031655480
 H         -1.2437891785       -0.6093912931        2.8751180276
 H         -0.0073655983        1.7994096353        1.2746008632
 H         -0.2988660161        4.2333506282        1.4311105702
 H         -2.4284117612        5.2902452556        0.7337688538
 H         -4.2712364918        3.8875901917       -0.1593539100
 H         -6.0091325342       -0.1909958052       -1.4224931587
 H         -5.8355940658       -2.6552077623       -1.6641885221
 H         -3.7861484706       -3.8279276260       -0.9167448887
 H         -1.9103120138       -2.5654327062        0.0469058059
 H          0.1833653140       -0.6413086681       -1.1716242694
  45
  -78.3560315022000       6.479946758867643E-002 !
 O          3.9147556118       -2.4739227257       -0.7810300613
 S          2.9648721244       -1.4178862702       -1.0329991364
 O          2.5273137616       -1.2046084024       -2.3936470830
 C          3.5654140243        0.1148892586       -0.3581871365
 C          3.0614641445        1.3327399240       -0.8200194669
 C          3.4263107363        2.4857679837       -0.1529655506
 C          4.2655209367        2.3765449515        0.9509653889
 N          4.7427288851        1.2119890509        1.3883011545
 C          4.4005533481        0.1135934670        0.7542407904
 C          1.5409336844       -1.6228908545        0.0152277750
 C          1.6437274090       -2.2917147691        1.2354481039
 C          0.5902658686       -2.2553683559        2.1221759203
 C         -0.5645698315       -1.5350121220        1.8218757415
 C         -0.6496881170       -0.8614925729        0.5987696691
 N         -1.8063718238       -0.1000564987        0.2873808499
 C         -1.7047721781        1.2650789586        0.1739812177
 C         -0.5194676588        1.9695132547        0.4262389471
 C         -0.4735441898        3.3335721122        0.2866348972
 C         -1.6185814139        4.0565168051       -0.1091823954
 C         -2.8037854835        3.3973542659       -0.3339874851
 C         -2.8753810654        2.0142351513       -0.1900885613
 O         -4.0643984758        1.4089331192       -0.3877522990
 C         -4.1532593359        0.0693674359       -0.2605597926
 C         -5.3888679878       -0.5368926185       -0.4752304340
 C         -5.5135920145       -1.9029961673       -0.3877257255
 C         -4.3852395935       -2.6985153508       -0.1004981395
 C         -3.1589713909       -2.1212943606        0.1168977083
 C         -3.0068581587       -0.7297050003        0.0682931049
 C          0.3942557726       -0.9049033204       -0.3049309946
 H          2.4219915151        1.3445270144       -1.6885745960
 H          3.0734806337        3.4518776521       -0.4796185965
 H          4.5783400907        3.2453123602        1.5118805686
 H          4.8059760366       -0.8181627539        1.1226472267
 H          2.5508806064       -2.8329173249        1.4488276665
 H          0.6574271145       -2.7749427167        3.0654532294
 H         -1.3814561147       -1.4794680354        2.5239002061
 H          0.3606114725        1.4267698129        0.7342440547
 H          0.4461851669        3.8585631852        0.4872808326
 H         -1.5630806450        5.1265268606       -0.2235370930
 H         -3.7000163334        3.9247425269       -0.6199251317
 H         -6.2294684919        0.0950204661       -0.7142409838
 H         -6.4700874607       -2.3713655343       -0.5522036058
 H         -4.4868329539       -3.7707323998       -0.0583774463
 H         -2.2958243330       -2.7346509874        0.3222686460
 H          0.3357592923       -0.4062066365       -1.2587866309
  45
  -78.3560229331000       6.421453646024684E-002 !
 O          3.6014542294       -2.7789005675       -0.5339412402
 S          2.8067638290       -1.6255450839       -0.8812636844
 O          2.2676285392       -1.5492261472       -2.2199923480
 C          3.7283973057       -0.1456168261       -0.5273836790
 C          3.3725432272        1.0677430304       -1.1170630299
 C          4.0369454960        2.2093848815       -0.7137024190
 C          5.0185772901        2.0940243475        0.2656971241
 N          5.3525809603        0.9344780110        0.8279961826
 C          4.7233830101       -0.1537008815        0.4443254806
 C          1.4699885232       -1.4526602531        0.2828429340
 C          1.6487529964       -1.8175356429        1.6172664967
 C          0.6569034649       -1.5533698342        2.5352503593
 C         -0.5203338801       -0.9178348642        2.1412703936
 C         -0.6825016822       -0.5580754179        0.8014800772
 N         -1.8877497343        0.0783918953        0.3860427235
 C         -1.9975702999        1.4415877154        0.4679811025
 C         -0.9715548387        2.2579994503        0.9597718799
 C         -1.1342521742        3.6191402809        1.0232616368
 C         -2.3366112646        4.2202289233        0.5910681606
 C         -3.3582648395        3.4450910731        0.0962083298
 C         -3.2156314601        2.0615351974        0.0224750564
 O         -4.2336823603        1.3305977109       -0.4758647135
 C         -4.1062229624       -0.0094362411       -0.5620234103
 C         -5.1609567961       -0.7494637624       -1.0905556888
 C         -5.0652925751       -2.1173431637       -1.1876324929
 C         -3.8978442981       -2.7803144560       -0.7508110943
 C         -2.8449687950       -2.0717098098       -0.2299631875
 C         -2.9116378541       -0.6767536786       -0.1214924994
 C          0.3056738228       -0.8127863262       -0.1283238978
 H          2.6088808514        1.0804185653       -1.8790332763
 H          3.8061532637        3.1705335096       -1.1463802732
 H          5.5687099712        2.9550111789        0.6170789465
 H          5.0198282933       -1.0859565507        0.9040061207
 H          2.5620837903       -2.3173467332        1.8954688565
 H          0.7826770949       -1.8396913712        3.5678904735
 H         -1.3035321388       -0.7087296996        2.8524913029
 H         -0.0516328613        1.7979047114        1.2871819132
 H         -0.3382795192        4.2368644694        1.4060874438
 H         -2.4486640612        5.2903739731        0.6487738919
 H         -4.2846162225        3.8793154862       -0.2451059677
 H         -6.0415938168       -0.2187684658       -1.4160386235
 H         -5.8813527269       -2.6890372431       -1.5979611147
 H         -3.8346324601       -3.8533183224       -0.8299368900
 H         -1.9508308004       -2.5773653163        0.0997098044
 H          0.1885868169       -0.5503712431       -1.1673289512
  45
  -78.3557514014000       4.817769552190380E-002 !
 O          3.2271762469        1.7565550375       -0.1013635319
 S          3.3794524330        0.4360430784        0.4661270486
 O          4.4641065114        0.2152418770        1.3915813028
 C          3.4466717974       -0.7630580519       -0.8462627509
 C          2.8515883598       -0.4909815866       -2.0792477719
 C          2.7875618821       -1.5078485827       -3.0122597021
 C          3.3106858138       -2.7516987998       -2.6738265797
 N          3.8772002176       -3.0069593172       -1.4955775633
 C          3.9398690649       -2.0410151680       -0.6063677596
 C          1.8436659943       -0.0516034918        1.2228807411
 C          1.8264549283       -0.9914539036        2.2540004079
 C          0.6221903100       -1.4819972702        2.7084108578
 C         -0.5757676490       -1.0587189207        2.1354722957
 C         -0.5420627032       -0.1210546174        1.0979164886
 N         -1.7577058278        0.3118268968        0.5024000268
 C         -2.2000216943        1.5945723911        0.7035884280
 C         -1.5308875406        2.5137133716        1.5231873294
 C         -2.0154826105        3.7868894345        1.6839869653
 C         -3.1987091034        4.1952155199        1.0318455427
 C         -3.8896122264        3.3093599977        0.2396009961
 C         -3.4188942426        2.0105311944        0.0655272773
 O         -4.1361549619        1.1630412496       -0.7002613262
 C         -3.6893969256       -0.0949693662       -0.8908467868
 C         -4.4367507709       -0.9512039205       -1.6964118680
 C         -3.9991981032       -2.2315390968       -1.9380300045
 C         -2.7807266202       -2.6787562851       -1.3848416811
 C         -2.0302259827       -1.8527223830       -0.5857738103
 C         -2.4641078951       -0.5526071787       -0.2969698207
 C          0.6589623051        0.3817018397        0.6375111630
 H          2.4783512776        0.5025576343       -2.2755548027
 H          2.3446094217       -1.3461038018       -3.9829150999
 H          3.2844440319       -3.5818144970       -3.3651322152
 H          4.4112823085       -2.2695680449        0.3389529314
 H          2.7663447329       -1.2985062311        2.6826844498
 H          0.5977115952       -2.1982887761        3.5150578138
 H         -1.5230211867       -1.4357368508        2.4873906518
 H         -0.6262656573        2.2063348060        2.0236608578
 H         -1.4877762475        4.4840192879        2.3142465353
 H         -3.5615054715        5.2012692490        1.1636105889
 H         -4.8033406104        3.5894759506       -0.2603323689
 H         -5.3546675888       -0.5761672716       -2.1205673592
 H         -4.5786802728       -2.8939795653       -2.5598171920
 H         -2.4342035723       -3.6771457227       -1.5966796072
 H         -1.0937933478       -2.1957133432       -0.1737975568
 H          0.6991137819        1.1074858517       -0.1587446750
  45
  -78.3556561130000       4.355665358993228E-002 !
 O          3.4968645648       -2.8978681026       -0.2870153024
 S          2.7538716568       -1.7496751116       -0.7478341889
 O          2.1775013317       -1.7993293999       -2.0723382823
 C          3.7687479018       -0.2955657893       -0.6008393585
 C          3.4974908176        0.8371880706       -1.3678996881
 C          4.2434705487        1.9764879989       -1.1365596528
 C          5.2180963705        1.9404716054       -0.1441486291
 N          5.4712316355        0.8581776513        0.5881772605
 C          4.7654370561       -0.2283341421        0.3669229980
 C          1.4595381120       -1.3794849735        0.4184868534
 C          1.6717231873       -1.5672204830        1.7849669352
 C          0.7074864070       -1.1701143307        2.6845035992
 C         -0.4752666524       -0.5816310344        2.2403766764
 C         -0.6749542988       -0.4027610169        0.8676210072
 N         -1.8911155245        0.1714487102        0.4065710067
 C         -2.1301826595        1.5083123974        0.6038681884
 C         -1.2056208384        2.3671795670        1.2117214468
 C         -1.4986924132        3.6959328340        1.3910321893
 C         -2.7342738378        4.2246907549        0.9591456981
 C         -3.6512014132        3.4126799996        0.3359403615
 C         -3.3735227052        2.0614421924        0.1409356563
 O         -4.2864893139        1.3014906753       -0.4964600187
 C         -4.0307107091       -0.0063686115       -0.7021104786
 C         -4.9837220768       -0.7733125406       -1.3677252374
 C         -4.7708509272       -2.1154136047       -1.5737559096
 C         -3.5891247253       -2.7252261294       -1.0995757101
 C         -2.6347325456       -1.9885503911       -0.4455069511
 C         -2.8123930774       -0.6137889017       -0.2387704920
 C          0.2894126597       -0.7879493355       -0.0433708461
 H          2.7340463009        0.7877428959       -2.1288202233
 H          4.0794569605        2.8755039592       -1.7101191190
 H          5.8277949601        2.8041895557        0.0793713884
 H          5.0003076295       -1.0998574951        0.9614017608
 H          2.5859581979       -2.0398264403        2.1042635540
 H          0.8584541180       -1.3186028080        3.7424749517
 H         -1.2404633856       -0.2793880150        2.9377430428
 H         -0.2564155832        1.9683537939        1.5348219378
 H         -0.7779290006        4.3443883451        1.8618751650
 H         -2.9506530525        5.2692807492        1.1112600533
 H         -4.5966062076        3.7923195853       -0.0178838648
 H         -5.8822398996       -0.2831482775       -1.7078021325
 H         -5.5072753789       -2.7078779238       -2.0911925649
 H         -3.4369229089       -3.7810689112       -1.2534253032
 H         -1.7344163560       -2.4598544854       -0.0843716226
 H          0.1497569997       -0.6621230289       -1.1050140185
  45
  -78.3555922565000       4.071065505799446E-002 !
 O          3.0794389587        1.7986978837       -0.3418269719
 S          3.3210567382        0.5757485251        0.3898303453
 O          4.3701398978        0.5743515143        1.3808932095
 C          3.5820834699       -0.7543925351       -0.7620194079
 C          3.0318166354       -0.6947279989       -2.0419739237
 C          3.1453925983       -1.8056369986       -2.8539888860
 C          3.7932770368       -2.9293973349       -2.3522655787
 N          4.3150770845       -2.9829217513       -1.1291864014
 C          4.2102337441       -1.9260781647       -0.3555929148
 C          1.7960558782        0.0489365925        1.1427576859
 C          1.8096513272       -0.8326283984        2.2243949859
 C          0.6217303440       -1.3329564599        2.7097492299
 C         -0.5903680677       -0.9704976335        2.1251608513
 C         -0.5881193741       -0.0873531793        1.0400903626
 N         -1.8209011501        0.2997096597        0.4489212096
 C         -2.2674828934        1.5899179750        0.5850383578
 C         -1.5825463757        2.5630674179        1.3256374235
 C         -2.0712747924        3.8409719472        1.4197180582
 C         -3.2755196915        4.2011492417        0.7777636500
 C         -3.9840517227        3.2624287114        0.0666835646
 C         -3.5100984074        1.9574085606       -0.0374302433
 O         -4.2485014470        1.0577453003       -0.7183822470
 C         -3.7999303248       -0.2074799467       -0.8420253511
 C         -4.5718505837       -1.1196501520       -1.5579711892
 C         -4.1329421780       -2.4097958651       -1.7337336731
 C         -2.8880055238       -2.8111122552       -1.2047502078
 C         -2.1140058451       -1.9302480890       -0.4914643963
 C         -2.5483883230       -0.6176818964       -0.2679722595
 C          0.5976669979        0.4164937073        0.5414640520
 H          2.5535824846        0.2158822411       -2.3663727493
 H          2.7430932539       -1.8073792900       -3.8547815696
 H          3.9050983461       -3.8267193843       -2.9431849494
 H          4.6500368167       -1.9899357464        0.6289456385
 H          2.7582893525       -1.0863374713        2.6681186097
 H          0.6209616551       -2.0079540540        3.5514889891
 H         -1.5253763354       -1.3492801929        2.5067222402
 H         -0.6624758336        2.2940030902        1.8195237412
 H         -1.5309523200        4.5788945608        1.9898984797
 H         -3.6412934144        5.2115214089        0.8561295045
 H         -4.9151359171        3.5045955967       -0.4207346783
 H         -5.5092188171       -0.7790885161       -1.9681119180
 H         -4.7312692289       -3.1152774896       -2.2863884979
 H         -2.5407531588       -3.8181992384       -1.3672936878
 H         -1.1585177605       -2.2390458580       -0.0967364782
 H          0.6156531469        1.1044460366       -0.2884689141
  45
  -78.3551720806000       2.609808352111335E-002 !
 O          2.9472569133        1.8211744903       -0.4524254542
 S          3.2536037392        0.6735155042        0.3714434947
 O          4.2294529418        0.8348021247        1.4227239589
 C          3.7310391716       -0.6863033829       -0.6715930364
 C          3.2672843615       -0.7658032808       -1.9844190073
 C          3.5790464452       -1.8928098103       -2.7196777360
 C          4.3294688522       -2.8941256267       -2.1111851156
 N          4.7672898968       -2.8157853547       -0.8565774608
 C          4.4746869834       -1.7423222599       -0.1563764444
 C          1.7342770057        0.0640731980        1.0738389113
 C          1.7622569145       -0.8146280083        2.1578090934
 C          0.5827109785       -1.3404263377        2.6371360748
 C         -0.6342710173       -1.0003406652        2.0504500312
 C         -0.6474279812       -0.1193511065        0.9623857262
 N         -1.8875342520        0.2555907590        0.3819408595
 C         -2.3154123812        1.5577182179        0.4692548242
 C         -1.5972575300        2.5600734662        1.1365930384
 C         -2.0690846440        3.8470711420        1.1813674355
 C         -3.2916945836        4.1894566873        0.5645179066
 C         -4.0354825201        3.2229934047       -0.0688476137
 C         -3.5784361524        1.9084999387       -0.1223667374
 O         -4.3562402703        0.9842715261       -0.7208650740
 C         -3.9290714115       -0.2920146686       -0.7932377168
 C         -4.7462788515       -1.2307328682       -1.4191231741
 C         -4.3317556033       -2.5348068955       -1.5453224067
 C         -3.0640446068       -2.9227914825       -1.0607013296
 C         -2.2459484365       -2.0156449394       -0.4353103577
 C         -2.6558699296       -0.6877160055       -0.2558894070
 C          0.5319028601        0.4019566589        0.4644186165
 H          2.7012002887        0.0566471246       -2.3933251891
 H          3.2534070366       -1.9981759189       -3.7429202121
 H          4.5999356027       -3.7964074219       -2.6407104505
 H          4.8547005843       -1.6933569943        0.8542584791
 H          2.7122731430       -1.0442356110        2.6113794010
 H          0.5920557712       -2.0129535876        3.4808842522
 H         -1.5630522093       -1.3904159598        2.4359055615
 H         -0.6642534043        2.3081525224        1.6145824888
 H         -1.5007568941        4.6060800913        1.6936679825
 H         -3.6429343888        5.2074099928        0.6017452616
 H         -4.9822978615        3.4496249023       -0.5330162329
 H         -5.6994372109       -0.8992718484       -1.7996049311
 H         -4.9656924194       -3.2613011506       -2.0263054035
 H         -2.7352093288       -3.9413724667       -1.1874676781
 H         -1.2739898700       -2.3162851394       -0.0761257075
 H          0.5429169484        1.0825452811       -0.3718735096
