97
 energy: -148.253864278594 gnorm: 0.000067862989 xtb: 6.7.1 (edcfbbe)
C            2.36123919695181        2.55657767496567       -3.47309549379891
C            2.30839179400346        3.35779265101755       -2.17680628400094
C            1.03601118527354        4.19865216672338       -2.08591494137689
C            0.97054469422134        5.07148121132195       -0.83057382532332
C            0.80227468713437        4.29663164853556        0.47851781090093
C           -0.56363882170247        3.62181093277000        0.59757370700082
C           -0.83321115670915        3.03070242530676        1.98142110746511
C            0.09217700167428        1.86531052399501        2.34191247397536
N           -0.00160942809621        0.77925075410905        1.39659172034357
C           -1.07666801455398       -0.06676448135733        1.29474915602977
O           -2.03698429500511       -0.07999070288101        2.04771577949073
C           -0.75451684058815       -0.94658920440410        0.16010856423001
C           -1.39408693240680       -1.93374882311083       -0.55086830910975
C           -2.73741410242862       -2.45238221022826       -0.44282177236322
C           -2.94042884778476       -3.83608688010395       -0.50445777846675
C           -4.18957797213862       -4.38364847433890       -0.30853651018346
C           -5.27907061011916       -3.55642842408830       -0.06585251990470
C           -5.11312662980211       -2.18500000977344       -0.05535662080090
C           -3.85767827444525       -1.61791927869131       -0.25585191089014
N           -3.75062050624479       -0.22573985070709       -0.35038468793821
C           -3.18044647596770        0.46892948915396       -1.40157721904920
C           -2.63575556125647       -0.00924131709271       -2.58537090001789
C           -2.16639814537735        0.91459089067887       -3.50126690827910
C           -2.25275571586329        2.28304369962793       -3.26113152873230
C           -2.83597665303012        2.76620974892838       -2.10284974240034
C           -3.30965235451089        1.85729821163058       -1.16852951636673
C           -4.00512536768315        1.99673510241079        0.08399639673761
C           -4.41660915176175        3.09162202822232        0.82810918654113
C           -5.08113734912542        2.86803867610893        2.02158758559738
C           -5.32083483843222        1.57353577250210        2.47750433557604
C           -4.91831380108703        0.46746154851853        1.75405427452829
C           -4.26840403975317        0.68554902577334        0.54549495186716
S           -0.29846535520440       -2.58964764192507       -1.75728140051154
C            1.06087585604642       -1.56226278614758       -1.23322874773936
C            2.34317715316889       -1.82284042873861       -1.74401500911994
C            2.48658028781392       -2.38322424825383       -3.04007537353717
C            3.70943104141775       -2.50504974470600       -3.63921280009694
C            4.87213228446307       -2.11259104544156       -2.96403760738652
C            4.78180762545436       -1.65080532092662       -1.66558061707481
C            3.55231802828885       -1.53270699492693       -1.02786687814988
N            3.52398631485685       -1.23177020527429        0.33176905552226
C            4.21281566972053       -0.21082193540435        0.94610695850868
C            5.02228596281108        0.77449991453560        0.38944039966299
C            5.56689147535560        1.71902025933205        1.23737438580057
C            5.31270979390036        1.69926818502483        2.60694838650814
C            4.48601795078608        0.73747521630544        3.16555768854738
C            3.93258723688982       -0.22154783617825        2.33491422695628
C            3.03552430966185       -1.32641668618833        2.56104642844909
C            2.43540510989319       -1.84780677395427        3.69585439431663
C            1.64575835315723       -2.97888815040914        3.56748138330784
C            1.48706589085132       -3.60232610841445        2.33396729448965
C            2.07894005082056       -3.09836773149982        1.18912315460263
C            2.81931739930827       -1.92918192842369        1.30126888129449
C            0.57859964356806       -0.68413595720998       -0.23106067792680
C            1.02748391956099        0.48036288176930        0.46926225337680
O            2.03125339554184        1.17848728549577        0.35843797271881
H            3.27734869226841        1.97197032989816       -3.52616985050579
H            1.51871651725032        1.86995216870640       -3.52820952283489
H            2.32312507692991        3.21792217852660       -4.33737325875284
H            2.35736258816306        2.66860954400999       -1.33250981972356
H            3.17955345689672        4.01596148299482       -2.12107174331443
H            0.98657594858268        4.85270868584608       -2.96184250258434
H            0.16723232462487        3.53826290358009       -2.12164124200018
H            0.13621921948590        5.77161129568539       -0.93240529925972
H            1.88904740948422        5.66133827889552       -0.77017602781502
H            1.58917123915967        3.54675168332162        0.55698159917324
H            0.92035745208256        4.99570968155148        1.31121515505383
H           -0.64964376767812        2.82771224757428       -0.14743661689136
H           -1.34382522377926        4.35653639279620        0.38456221225711
H           -0.71609011082462        3.80342326573468        2.74383978815782
H           -1.86377126714248        2.66850180936168        2.01961032945980
H           -0.17685564011161        1.48125538840054        3.33195703699609
H            1.13720168767163        2.18292187539996        2.34501312827860
H           -2.08610414818481       -4.47271061844971       -0.68076745417009
H           -4.31834514564719       -5.45446934618821       -0.34191830012528
H           -6.26012885190435       -3.97896427747695        0.08656493133762
H           -5.96473350060557       -1.53347535967251        0.07123494161959
H           -2.58934567538247       -1.06613212870515       -2.79759757841656
H           -1.73112814725205        0.56422061515073       -4.42524941014450
H           -1.87333319489378        2.97450961302430       -3.99844435730537
H           -2.92807324765684        3.82754572746325       -1.93094730051549
H           -4.21616117343753        4.09493669700539        0.48432742817037
H           -5.40871955394692        3.70768585795612        2.61632055633515
H           -5.82598251453969        1.43112933779648        3.42114034048471
H           -5.07776264267812       -0.53070073502563        2.12955642309068
H            1.58772943107818       -2.67440234845836       -3.56418460693398
H            3.78174160539258       -2.90553352912717       -4.63913557200559
H            5.83649993154361       -2.21897462463971       -3.43464241189643
H            5.68012669554967       -1.44323151755826       -1.10311412101956
H            5.19610805409850        0.82007665851553       -0.67352452310447
H            6.19572181755012        2.49517616613993        0.82782189473192
H            5.75409856605895        2.45587588348564        3.23835363382742
H            4.26777496961038        0.74040210839088        4.22277255865042
H            2.58744465964882       -1.38528072938621        4.65915822307583
H            1.16131118944033       -3.39485824467685        4.43799032703560
H            0.89269631343092       -4.50128783611862        2.26697353577500
H            1.96462922443779       -3.60277937062095        0.24241738483211
