  97
       -148.28132762
 C          2.2841392057        2.0708693911       -3.2430430822
 C          2.3837535520        3.0629771764       -2.0898002166
 C          1.1562321512        3.9697957294       -2.0298898451
 C          1.1539065683        4.9186083730       -0.8288246872
 C          0.9261388366        4.2352315728        0.5219968971
 C         -0.4777771503        3.6473068006        0.6548449159
 C         -0.7930556930        3.1129988020        2.0518889349
 C          0.0635636130        1.9111618076        2.4617432098
 N         -0.0518730432        0.8179258755        1.5249131534
 C         -1.1422807042       -0.0410017400        1.4696908512
 O         -2.0600320192       -0.0451626616        2.2528885529
 C         -0.8563032092       -0.9314604651        0.3303175105
 C         -1.4582948740       -1.9714769003       -0.3125316081
 C         -2.8031048896       -2.5040600418       -0.1661424340
 C         -2.9988063001       -3.8765208871       -0.0377137465
 C         -4.2627329602       -4.3964423289        0.1625246105
 C         -5.3553876029       -3.5460611776        0.2234388883
 C         -5.1842776410       -2.1845910189        0.0564714677
 C         -3.9174984139       -1.6479539640       -0.1475713293
 N         -3.7746107640       -0.2751763651       -0.3726688150
 C         -3.0942207124        0.3006800987       -1.4256661914
 C         -2.5388482734       -0.2949292046       -2.5494948822
 C         -1.9099675554        0.5213516506       -3.4701245278
 C         -1.8592987965        1.9030457922       -3.3010155133
 C         -2.4657616777        2.5067539997       -2.2167731191
 C         -3.0931084239        1.7057393691       -1.2718146631
 C         -3.8324941648        1.9830637836       -0.0724511780
 C         -4.1743242017        3.1567322824        0.5869520406
 C         -4.9060328586        3.0692486585        1.7540303310
 C         -5.2848592695        1.8316164379        2.2702404676
 C         -4.9581400219        0.6514336193        1.6314076643
 C         -4.2395852152        0.7347782067        0.4487889065
 S         -0.3613683900       -2.6267326482       -1.5082883539
 C          0.8937434849       -1.4613568417       -1.1339462452
 C          2.1669798934       -1.5321196713       -1.8285636391
 C          2.1662343514       -1.7697046463       -3.2031546323
 C          3.3414886904       -1.8147366966       -3.9245097774
 C          4.5526055507       -1.6437209915       -3.2718344302
 C          4.5770319893       -1.4426450124       -1.9055633853
 C          3.3985922273       -1.3828746265       -1.1652669458
 N          3.4814966506       -1.2002825296        0.2164206534
 C          4.1679260927       -0.1712670844        0.8401733406
 C          4.9573742003        0.8277905580        0.2916280158
 C          5.5079224464        1.7595849553        1.1499671262
 C          5.2767694748        1.7128547035        2.5227484546
 C          4.4704021288        0.7362121843        3.0714342961
 C          3.9096903659       -0.2136067852        2.2282534391
 C          3.0228676156       -1.3215236553        2.4467372566
 C          2.4181587163       -1.8536949513        3.5778219524
 C          1.6209201705       -2.9724132965        3.4395423018
 C          1.4553600765       -3.5828643086        2.1982008041
 C          2.0480639837       -3.0722979679        1.0598752269
 C          2.7980662918       -1.9103207091        1.1816378092
 C          0.4522618117       -0.6344484001       -0.1435877419
 C          0.9381232030        0.5390618919        0.5918659045
 O          1.9517548464        1.1788593989        0.4594345219
 H          3.1605398091        1.4272165826       -3.2756155373
 H          1.4058618338        1.4409084660       -3.1206209104
 H          2.2031125214        2.5903419163       -4.1966092730
 H          2.4779245270        2.5060070482       -1.1602373564
 H          3.2812841543        3.6742104590       -2.2088224522
 H          1.1182031206        4.5699923294       -2.9436182122
 H          0.2601182903        3.3512200585       -2.0089331652
 H          0.3728549524        5.6694944472       -0.9778365351
 H          2.1116605871        5.4435771660       -0.7971925610
 H          1.6696501792        3.4526740571        0.6540170675
 H          1.0731407341        4.9772192688        1.3114506069
 H         -0.6106748654        2.8418498750       -0.0678539480
 H         -1.2099801961        4.4224925088        0.4184712695
 H         -0.6407624094        3.9002616133        2.7926518081
 H         -1.8423506793        2.8135330406        2.0846148805
 H         -0.2616982548        1.5518289477        3.4416941141
 H          1.1201611066        2.1811617457        2.5008946883
 H         -2.1387931739       -4.5293956592       -0.0742098949
 H         -4.3955675679       -5.4614950381        0.2727448737
 H         -6.3453532991       -3.9458118113        0.3818652032
 H         -6.0363255480       -1.5216620110        0.0598023033
 H         -2.6109945238       -1.3590138282       -2.7141478833
 H         -1.4587041110        0.0803700224       -4.3470846978
 H         -1.3566185042        2.5072841556       -4.0413057051
 H         -2.4585805557        3.5803878518       -2.1059176497
 H         -3.8700055637        4.1144864165        0.1922403115
 H         -5.1830047724        3.9695750802        2.2821669093
 H         -5.8435521183        1.7949295907        3.1934733787
 H         -5.2334597724       -0.3022268839        2.0525546765
 H          1.2176430292       -1.8968886589       -3.7038748981
 H          3.3150203109       -1.9859185448       -4.9893356733
 H          5.4786700494       -1.6859877913       -3.8247130853
 H          5.5187689103       -1.3531025760       -1.3860280672
 H          5.1140321860        0.8992668912       -0.7728279563
 H          6.1249188404        2.5486570558        0.7459209896
 H          5.7247238482        2.4606128284        3.1602536290
 H          4.2714168689        0.7109586364        4.1326439937
 H          2.5749534366       -1.4014466721        4.5455498487
 H          1.1333713197       -3.3955456209        4.3048150105
 H          0.8557480824       -4.4783856733        2.1261195272
 H          1.9375996305       -3.5714156404        0.1091684431
