97
 energy: -148.253799572664 gnorm: 0.000048861201 xtb: 6.7.1 (edcfbbe)
C           -3.53608410102052        3.51455691573790       -3.72087038799562
C           -2.77959082756648        2.32572487743519       -3.13967185300289
C           -3.64640163814982        1.07613613226137       -2.97850798417574
C           -4.75047821682832        1.23769178180612       -1.93475282545129
C           -5.40257446174993       -0.09788953525355       -1.58224470871977
C           -6.43936911901624        0.03243215861926       -0.45778729606850
C           -6.56899139989132       -1.24201598130206        0.38723722787899
C           -5.62820597963444       -1.23902454714123        1.59976736603789
N           -4.25417038406413       -0.99133869464035        1.23388784175941
C           -3.43482626432181       -1.92802419937596        0.63457455757360
O           -3.74377626772572       -3.10182719497446        0.46468422806912
C           -2.20330271665719       -1.20742717128316        0.31394412290655
C           -0.96331118401379       -1.51810199218045       -0.24059997909839
C           -0.54108694928456       -2.68309790324688       -0.94943624339523
C           -1.49874328693765       -3.49701557419977       -1.58586167654586
C           -1.12459251089119       -4.50362261643230       -2.44291170467403
C            0.22285522284257       -4.74765821999169       -2.69835126499862
C            1.18536232263559       -4.00185899380246       -2.04812030516900
C            0.82545971568394       -2.99399965159429       -1.15917129037008
N            1.83541676842228       -2.36709221561443       -0.42032136706097
C            1.95627072082614       -2.43113467145313        0.95931478443742
C            1.04426653875606       -2.87465563142128        1.90561039701586
C            1.44330010701826       -2.88959235005785        3.23056381625439
C            2.72164253302358       -2.49016007021350        3.60615957441310
C            3.64069007058961       -2.06197898665974        2.66316198185291
C            3.25676291045513       -2.02263648830902        1.33269941457604
C            3.94460570630864       -1.67985336214522        0.11492620106765
C            5.22275030830179       -1.22618465501379       -0.16732310603151
C            5.56600902633997       -0.99545077723447       -1.48847461225176
C            4.64880085808846       -1.19879693764321       -2.51709160585311
C            3.37132804723492       -1.65821423646110       -2.26043115356228
C            3.03192121160183       -1.91754958591198       -0.93848130547565
S            0.07277084452238       -0.09902898746710       -0.13726013419927
C           -1.20873126218372        0.93816545886881        0.50600832540925
C           -1.07017317705625        2.33984073554819        0.52290959763286
C           -2.21348957178781        3.17021206590150        0.65061339603539
C           -2.15937345345684        4.51208455066515        0.38253449122928
C           -0.96070931958337        5.11274335992364       -0.01121738784055
C            0.19226058895852        4.35407755074600       -0.05141913706034
C            0.16967909525178        2.99914729903890        0.25443978552269
N            1.39313788326076        2.33157744878698        0.37145672973833
C            1.88138201372071        1.79832118545492        1.55160692519502
C            1.21990680323665        1.55679210905823        2.74798380748356
C            1.96496755008016        1.08434831028633        3.81206275887642
C            3.33512308596514        0.86646167753250        3.69681436064715
C            4.00026975885839        1.11311115243428        2.50755486470378
C            3.27229525623583        1.57400680367591        1.42393452431206
C            3.63155504781974        1.97749069568247        0.08793928571575
C            4.82316527692914        2.00338681733088       -0.61708767789993
C            4.80805404531901        2.46338925657838       -1.92444979283220
C            3.62566256331618        2.88289989516828       -2.52712885971902
C            2.42684084262910        2.88046808001815       -1.83644750381347
C            2.44274853782458        2.44246054562671       -0.51902366750718
C           -2.34591576807279        0.12722538083963        0.74822631200562
C           -3.64881001488029        0.26565972453052        1.35420627661844
O           -4.19865622557070        1.21498239436918        1.91079114801463
H           -2.85807476498388        4.35109517680778       -3.87593054755478
H           -3.98347200012024        3.25060396691831       -4.67702864495148
H           -4.32515703888550        3.83791169436190       -3.04708171090654
H           -1.94046238900324        2.08244036808632       -3.79675485639321
H           -2.36966557864961        2.59955314890644       -2.16419064002137
H           -4.09015081837854        0.81051747840180       -3.94098066882090
H           -3.00187342027148        0.24579066810943       -2.67440200460853
H           -5.51480881399367        1.92687380043897       -2.29711112786296
H           -4.31724619839009        1.66703144506499       -1.02720541538628
H           -5.87667154113545       -0.52241705732900       -2.47070313894317
H           -4.61754810461189       -0.79451997230963       -1.27998170923124
H           -7.40808706249885        0.28359803427836       -0.89313551025545
H           -6.15795051687931        0.85729599399436        0.20100621014181
H           -7.58611608739427       -1.33836929171629        0.77069999761837
H           -6.35666313164505       -2.11916379257504       -0.22764879598413
H           -5.67938320561797       -2.20504095348609        2.11184252650769
H           -5.90959247700044       -0.44014520452516        2.29177464118020
H           -2.54340241316514       -3.31009420479856       -1.40214414327382
H           -1.88337311650579       -5.10028907287932       -2.92583832786197
H            0.51491847328547       -5.53688508378295       -3.37339522629869
H            2.23343888254650       -4.22007184303644       -2.19024912446397
H            0.05503396104986       -3.20430662395866        1.62413374919326
H            0.74764669561868       -3.22752560686514        3.98436436371020
H            2.99946747528948       -2.52648902027731        4.64857186161210
H            4.64088191890518       -1.78352838142493        2.95360116947180
H            5.93287614847514       -1.06163870056203        0.62770776751282
H            6.56018357181798       -0.65200005386787       -1.73081081049303
H            4.94168115968692       -0.99418404373834       -3.53572218342492
H            2.65968506776648       -1.80929454786400       -3.05748519012011
H           -3.14435022245244        2.72206322314993        0.95405072714057
H           -3.05604256343958        5.10732006766206        0.46830339521603
H           -0.92513429739635        6.16793664154590       -0.23102968094689
H            1.14225341572569        4.81945182324519       -0.27062882411888
H            0.16060802427649        1.73972050606730        2.84939746028033
H            1.47326009918020        0.88939727217817        4.75332698954067
H            3.88503230553935        0.51442380305155        4.55599264880916
H            5.06537147274732        0.96468408495841        2.42682025230354
H            5.74183752090405        1.67951749406193       -0.15585790385716
H            5.72713865533820        2.49473813449329       -2.48952648837775
H            3.64355787459063        3.22120906844091       -3.55221640702227
H            1.50903816129837        3.20386537121852       -2.30333691763093
