97
 energy: -148.331822299588 gnorm: 0.000061491551 xtb: 6.7.1 (edcfbbe)
C            2.46207348942756        2.71155616201662       -3.49874393277132
C            2.37682696146471        3.48458410956862       -2.18737004150795
C            1.10818404512040        4.33295416205393       -2.11560293495627
C            1.02202185275840        5.19437840284590       -0.85385479572842
C            0.83443589284940        4.40819804341160        0.44577277868001
C           -0.52656929427134        3.71794043696924        0.52983819005730
C           -0.83081664908323        3.13790738668987        1.91101649410035
C            0.09349710277009        1.98587832264692        2.31166725009019
N            0.00380690183659        0.87356561159386        1.39145877013601
C           -1.08966979119916        0.01632054852220        1.34196696499909
O           -2.02123868412305        0.04904148534549        2.11291911707165
C           -0.79416564019815       -0.91246580164801        0.24533386796916
C           -1.39405797453366       -1.97485490093995       -0.36747242176934
C           -2.73045578361165       -2.52530364891821       -0.21385180230925
C           -2.89197927424837       -3.90783324135134       -0.12165452520989
C           -4.13745663937760       -4.46647707707302        0.08485661171654
C           -5.25148710659397       -3.64718985464539        0.18341522570086
C           -5.11683916608047       -2.27793340895016        0.05053748349158
C           -3.86704919874604       -1.70071561699293       -0.15286777945761
N           -3.77503392662340       -0.31592875031943       -0.34180213405712
C           -3.15480523427544        0.31769097306669       -1.40065318742508
C           -2.58441027738651       -0.22521511155395       -2.54375277150833
C           -2.04938612730210        0.64372383981013       -3.47580583059500
C           -2.09494748752481        2.02403227429705       -3.29237083692258
C           -2.70288474384892        2.57148557674211       -2.17974538923060
C           -3.24431139657081        1.71770375925719       -1.22693916441628
C           -3.97176609909227        1.93071685580763       -0.00677724138967
C           -4.37315239467967        3.07149707299356        0.67741678284876
C           -5.07529174603052        2.92232756214457        1.85644771695174
C           -5.36695095862371        1.65606501172222        2.36008483668149
C           -4.97846366224046        0.50792050316533        1.69754316506293
C           -4.28810164423865        0.65194994817338        0.50345537775659
S           -0.27385606833759       -2.68188464014354       -1.50863450564677
C            0.99011700898844       -1.52626678192078       -1.14514034655699
C            2.28863834116115       -1.65816066559110       -1.78531790783293
C            2.34283536936871       -1.92867732716054       -3.15343823158929
C            3.55020414523310       -2.03359607793245       -3.81398369319034
C            4.73446655388733       -1.89565047914387       -3.10646930303806
C            4.70213836498295       -1.66892331074482       -1.74354801584954
C            3.49208280317567       -1.54699143078666       -1.06602073462380
N            3.50819522429674       -1.34917642492726        0.32074092484565
C            4.18551691852911       -0.33334810996379        0.97536462661102
C            5.01972139060351        0.64905979700283        0.46356614474128
C            5.55794531383541        1.56408017328028        1.34748496064427
C            5.27404821714228        1.51487717631494        2.71064558604644
C            4.42938590823030        0.55106178010177        3.22335173263305
C            3.87829430500652       -0.38133598181609        2.35334145611925
C            2.97611772889932       -1.48437474366224        2.53468954342695
C            2.34074563449163       -2.02894169537100        3.64369118395694
C            1.55100887117852       -3.14875967289582        3.47272733590990
C            1.41925709867172       -3.74605813259631        2.22084870214992
C            2.03850417409033       -3.22055790752086        1.10297229974410
C            2.78769131644724       -2.06192374105617        1.25812527295095
C            0.53034552963023       -0.64654682561923       -0.20738318771814
C            1.00486620744297        0.55859963729575        0.47966590568403
O            2.01338749406336        1.20691796439689        0.32100228996773
H            3.37120620692019        2.11510789911450       -3.53256094210081
H            1.61033920804712        2.04182516735416       -3.59899089500694
H            2.46485536820096        3.39359959533813       -4.34737126181035
H            2.39845887696562        2.77730474014706       -1.35705995526549
H            3.25028773136061        4.13492688993767       -2.09260342918831
H            1.08304965090170        4.99635042977910       -2.98527171229192
H            0.23525868785971        3.68028677203249       -2.17760856412628
H            0.18829877738389        5.89391974621362       -0.96256872284820
H            1.93829063088350        5.78518264109835       -0.77363995498439
H            1.63104464927031        3.66996894808869        0.53788835120264
H            0.92487354343516        5.10410742290640        1.28426677677454
H           -0.58605829422505        2.91943543970980       -0.21304765550908
H           -1.30702991001334        4.44368374930052        0.29042829912958
H           -0.73933578439474        3.91929080878592        2.66744955285477
H           -1.86010097639030        2.77103789512167        1.92565575203921
H           -0.18742386425331        1.62213359142943        3.30497175284853
H            1.13764052810021        2.30416019999847        2.32084804942400
H           -2.01735584455240       -4.53736392497373       -0.19248230838710
H           -4.23984471102014       -5.53723778317389        0.16751110284893
H           -6.22911760756407       -4.07547834385641        0.34328218293336
H           -5.98567772771306       -1.63772153234194        0.08050436851660
H           -2.57678540701465       -1.29101817532260       -2.71495432974365
H           -1.59604269949275        0.24403099630407       -4.37109895371936
H           -1.66478466234882        2.67169837817282       -4.04200616358431
H           -2.76559650999023        3.64175319167170       -2.05295935782768
H           -4.13469469906082        4.05188819705256        0.29272239941438
H           -5.39593847100308        3.79632573895323        2.40420205503287
H           -5.90495682311421        1.57025003429352        3.29283778672133
H           -5.18574659322810       -0.46721641957431        2.10987480268742
H            1.41497881399398       -2.03174056668869       -3.69648117338925
H            3.56813465343239       -2.22645879779147       -4.87526213120399
H            5.68408814285384       -1.98336973183180       -3.61178764514509
H            5.62015076352335       -1.60611142809202       -1.17888782950963
H            5.22506951436315        0.71611655398583       -0.59336034529220
H            6.20958397001026        2.33942991550724        0.97186709741236
H            5.71371185024323        2.24913161478293        3.36979283963454
H            4.19359986233149        0.52181311086726        4.27704021051031
H            2.47091822565194       -1.58639090680370        4.62007869223068
H            1.04339845788384       -3.58260270530540        4.32151852545159
H            0.82605903477096       -4.64339598400644        2.12443970075089
H            1.95466129694136       -3.70921101034548        0.14392556403274
