  97
       -148.20599573
 C         -2.6191205809        3.0842452343       -3.4577590465
 C         -2.1089691701        1.8072522139       -2.8013381259
 C         -3.1717364600        0.7120809008       -2.7063936941
 C         -4.3513046373        1.0937126800       -1.8132680723
 C         -5.2389440639       -0.1122605924       -1.5118568590
 C         -6.3295943837        0.1993783651       -0.4767360058
 C         -6.6617842773       -1.0041380172        0.4161692053
 C         -5.8420091925       -1.0041063700        1.7143553400
 N         -4.4336094620       -0.8475630964        1.4529919127
 C         -3.6353928852       -1.8293413413        0.8908598624
 O         -3.9844229010       -2.9916239244        0.7479502271
 C         -2.3652352423       -1.1580592008        0.5885434203
 C         -1.1336580342       -1.5024139129        0.0030067529
 C         -0.7564407830       -2.6515423455       -0.7277546373
 C         -1.7439239693       -3.5350843277       -1.2223663864
 C         -1.4385519009       -4.4972876597       -2.1486792573
 C         -0.1313009399       -4.6425300124       -2.6171909711
 C          0.8705286978       -3.8523737559       -2.0890920318
 C          0.5897427443       -2.8898669291       -1.1270526739
 N          1.6583880156       -2.2412724613       -0.5051059714
 C          1.9475853851       -2.3313987874        0.8479179384
 C          1.1484502995       -2.7693105518        1.8925028001
 C          1.7043842884       -2.8088689318        3.1581559730
 C          3.0275563695       -2.4413119354        3.3807120618
 C          3.8324142670       -2.0166710597        2.3387370897
 C          3.2899389063       -1.9486137065        1.0657065041
 C          3.8270122482       -1.5878721162       -0.2192091618
 C          5.0676235436       -1.1484844830       -0.6515068627
 C          5.2437044835       -0.8826079653       -1.9978343851
 C          4.1965987223       -1.0330921156       -2.9040521210
 C          2.9559403922       -1.4845352753       -2.4981196472
 C          2.7848999555       -1.7851479748       -1.1537236685
 S         -0.0570266614       -0.1064425949        0.0878008624
 C         -1.3028842833        0.9525943607        0.7554887070
 C         -1.1431544249        2.3503779109        0.7426365737
 C         -2.2594799628        3.2011879901        0.9520788897
 C         -2.2123228636        4.5323333475        0.6386325861
 C         -1.0464587135        5.1025013865        0.1202635194
 C          0.0878302124        4.3236643829       -0.0017741751
 C          0.0762813680        2.9791983399        0.3433351476
 N          1.2928698830        2.2930813924        0.3432611766
 C          1.8999168212        1.7739104747        1.4725790764
 C          1.3548120307        1.5149798173        2.7213891378
 C          2.2018330478        1.0535436071        3.7103601724
 C          3.5608459801        0.8659931963        3.4713206330
 C          4.1083295780        1.1243401483        2.2275588181
 C          3.2751976371        1.5702955034        1.2148218495
 C          3.4984136004        1.9650015816       -0.1509861740
 C          4.6152170308        2.0052260348       -0.9695369295
 C          4.4631712719        2.4381990511       -2.2755333790
 C          3.2181886798        2.8208947439       -2.7669244960
 C          2.0947958443        2.8131703941       -1.9606065427
 C          2.2488405152        2.4018760977       -0.6447937202
 C         -2.4570999870        0.1721278676        1.0188718916
 C         -3.7776347775        0.3677375700        1.6103342548
 O         -4.2764534257        1.3253326368        2.1878173679
 H         -1.8085860571        3.8006087104       -3.5755107123
 H         -3.0350212030        2.8727069954       -4.4407618586
 H         -3.3900374718        3.5462483777       -2.8472998942
 H         -1.2637378692        1.4221191090       -3.3776976506
 H         -1.7528445726        2.0450218199       -1.8009415325
 H         -3.5342225913        0.4682823127       -3.7072014658
 H         -2.7019184131       -0.1841479880       -2.2978741030
 H         -4.9453145091        1.8726673708       -2.2906991811
 H         -3.9639973747        1.4937112637       -0.8766017670
 H         -5.6991484749       -0.4695194438       -2.4360569374
 H         -4.6066087561       -0.9160976924       -1.1420761144
 H         -7.2323221395        0.5330090114       -0.9909012106
 H         -5.9974071274        1.0174913784        0.1590614437
 H         -7.7158870086       -0.9921119661        0.6958089559
 H         -6.4660241529       -1.9281369684       -0.1256657641
 H         -6.0046673168       -1.9383751143        2.2568771759
 H         -6.1316251536       -0.1571446694        2.3378205863
 H         -2.7513436812       -3.4329584824       -0.8624901484
 H         -2.2169618683       -5.1445319457       -2.5227015273
 H          0.1050811610       -5.3972727161       -3.3505265346
 H          1.8975373728       -4.0083208142       -2.3833916038
 H          0.1273845751       -3.0735106395        1.7283093683
 H          1.0998808342       -3.1421944451        3.9883661614
 H          3.4300121874       -2.4984124319        4.3805774549
 H          4.8656465629       -1.7580583755        2.5088874656
 H          5.8784254910       -1.0203347090        0.0492628647
 H          6.2056564668       -0.5497139140       -2.3569917003
 H          4.3594015946       -0.7961417542       -3.9443972867
 H          2.1443249101       -1.5989370051       -3.2001072601
 H         -3.1616315352        2.7753064468        1.3522207016
 H         -3.0865049693        5.1473864189        0.7893246363
 H         -1.0150618440        6.1501344708       -0.1334629641
 H          1.0185335139        4.7666098209       -0.3235452925
 H          0.3064255479        1.6752681451        2.9161113737
 H          1.8036012691        0.8435794637        4.6915214512
 H          4.1938738782        0.5238943372        4.2757142137
 H          5.1642945561        0.9930424273        2.0482341570
 H          5.5824084790        1.7110479078       -0.5945260069
 H          5.3217235472        2.4779743875       -2.9284047464
 H          3.1291922624        3.1380244554       -3.7950564610
 H          1.1292685200        3.1125198599       -2.3378705683
