106
 energy: -171.294201901385 gnorm: 0.000093907798 xtb: 6.7.1 (edcfbbe)
C           -8.22845025526757       -1.55353781211560        1.01001380610523
C           -8.29175429495745       -0.25374998731949        0.53201793768409
C           -7.14311026423892        0.50816609198502        0.44093466331897
C           -5.91899587914854       -0.03387238365670        0.82191230140201
C           -4.69092059945311        0.74241262958683        0.66915789961224
N           -4.76345431866718        2.06656775639783        0.58726498110925
C           -3.59612102500946        2.71897794611232        0.44122078583589
C           -3.61969396905952        4.17730167613325        0.43305080708105
C           -4.81981198841371        4.86299212474385        0.62116748058330
C           -4.83467564519448        6.24380025805323        0.61703610504049
C           -3.65884840775089        6.95338077741538        0.42673755527363
C           -2.46288825870165        6.27621172816268        0.23977254067321
C           -2.43902528775918        4.89637716735343        0.24191465969058
N           -2.43187305787395        2.11743525585118        0.28599704793454
C           -2.43941666194793        0.78016354182165        0.32990522418787
C           -1.21436776056423        0.07728838495809        0.05521893829509
C           -0.00150894971610        0.73770072797125        0.18546538410053
C            1.21386407939847        0.08386447179726        0.04858451638852
C            2.43693665117794        0.79437580287521        0.31459082435313
N            2.42168001966414        2.13117296217067        0.26435584952258
C            3.58366342466929        2.73964109012314        0.41101802754793
C            3.59941077577033        4.19808134718504        0.39473522310947
C            4.79603097290641        4.89117064279442        0.57774825244342
C            4.80356785427633        6.27199952412931        0.56544073637736
C            3.62385805715309        6.97418040919822        0.37177815040393
C            2.43136402695877        6.28960724319958        0.18978161811845
C            2.41479747178662        4.90968449337151        0.20030860269261
N            4.75486713309791        2.09427134639084        0.55468138787840
C            4.68977712856215        0.77018647253001        0.64313250554247
C            5.92275049228729        0.00118997899206        0.79318129178888
C            5.87349110162407       -1.30046996022425        1.28532551244014
C            7.03082548133166       -2.04782105595030        1.37725107669016
C            8.24132111369527       -1.50516494915496        0.97592917366032
C            8.29528001370257       -0.20683278911584        0.49285646782307
C            7.14207693208657        0.54847222624211        0.40440236193038
N            3.55622476105962        0.09880268345583        0.57559296450571
C            1.21242962710384       -1.29772045435882       -0.31058691603407
N            2.41361234804884       -1.97701088616202       -0.54871804273371
C            3.39014936930078       -1.59043407612984       -1.44571365212794
C            3.39443846460708       -0.52725527489035       -2.33749625349407
C            4.52907250553218       -0.33665933960946       -3.10324363275261
C            5.62465854636926       -1.19068541143353       -3.00340646403240
C            5.60706394005921       -2.27661219509206       -2.14800670934163
C            4.48028470827565       -2.48663069251318       -1.36772913436765
C            4.12142296765871       -3.47659777185029       -0.38879673095062
C            4.76205760967393       -4.59447027616204        0.12289082914226
C            4.12672193824137       -5.32929726862372        1.10751750726525
C            2.87331031813786       -4.95517873740203        1.58943556914359
C            2.21430151871448       -3.84718793423962        1.09391640387154
C            2.83867269149595       -3.11476463995212        0.09234692941681
C            0.00391870227581       -1.95744579200166       -0.47328544930437
C           -1.20718433520853       -1.30396723379956       -0.30569924637320
N           -2.40591231069089       -1.98852049863178       -0.54091238203207
C           -3.38750967881185       -1.60402984808675       -1.43341305673589
C           -3.40028953513982       -0.53803571251337       -2.32174197975413
C           -4.53851945976499       -0.35076637430279       -3.08296740568169
C           -5.62937728336933       -1.21071004671099       -2.98218546511019
C           -5.60321437620742       -2.29937694564193       -2.13051094609437
C           -4.47266486030519       -2.50615890920907       -1.35481387217117
C           -4.10522702548963       -3.49770546593061       -0.38069240565229
C           -4.73818944540071       -4.62089314338306        0.12890478642258
C           -4.09560986946199       -5.35607600388446        1.10853775526464
C           -2.84256240886055       -4.97710253634757        1.58761887477471
C           -2.19112870242393       -3.86374992230464        1.09410545633675
C           -2.82273516194002       -3.13086410087705        0.09740454295662
N           -3.55423539246668        0.07763920029049        0.59322477495133
C           -5.86033639168909       -1.33705270539982        1.30898007514337
C           -7.01313012551076       -2.09105240774998        1.40359308897158
H           -9.12893166956825       -2.14660997460405        1.07873326319320
H           -9.24100733798633        0.16342798288045        0.22900918839230
H           -7.17128142139038        1.51968858860385        0.06607428494613
H           -5.72504678823701        4.29551262639035        0.77160942445695
H           -5.76530811588332        6.77266058945269        0.76342096925479
H           -3.67431389541650        8.03355093146707        0.42458315640319
H           -1.54772546226719        6.83094271353423        0.09220009813691
H           -1.51863182522044        4.35326823908432        0.09631758352928
H           -0.00364027471987        1.77939911911866        0.46453571455586
H            5.70437811758687        4.32937680918792        0.73076227343354
H            5.73149442008059        6.80665078843263        0.70791144606752
H            3.63363048071762        8.05438763089056        0.36298785746614
H            1.51324158541758        6.83860162354057        0.03915414134641
H            1.49723911251466        4.36080546792772        0.05845934681680
H            4.92454108046983       -1.70732533346874        1.59849532565828
H            6.98787162871609       -3.05696647344460        1.76005624425967
H            9.14533771584810       -2.09308175578999        1.04252788521992
H            9.24080143698901        0.21437117553241        0.18380400266389
H            7.16292931513639        1.55872519939798        0.02565951321792
H            2.54723320432822        0.13751876605598       -2.41907155887348
H            4.56699781364938        0.49352372495495       -3.79298480267359
H            6.49711554630163       -1.00182976989063       -3.61076327411221
H            6.45331166783600       -2.94327361737119       -2.08065564106004
H            5.73823182653212       -4.87895511643497       -0.23960134140173
H            4.60877750268105       -6.20392909498708        1.51839576336669
H            2.41046765937390       -5.54294224016506        2.36820312000714
H            1.25109122820894       -3.55088934840024        1.47981234146289
H            0.00603130100846       -2.99338938253570       -0.78297990973070
H           -2.55679601142253        0.13132573641273       -2.40412698068212
H           -4.58306628691377        0.48148458682972       -3.76981232979112
H           -6.50491012212312       -1.02429511118818       -3.58585722951046
H           -6.44574660318624       -2.97066005996742       -2.06250888673295
H           -5.71406660347206       -4.90916886165037       -0.23138254925931
H           -4.57158774127260       -6.23484076909841        1.51767545776301
H           -2.37392065387376       -5.56536758706458        2.36252555098804
H           -1.22816175392195       -3.56393949824336        1.47785877428239
H           -4.90773902497802       -1.73985290294492        1.61626450397715
H           -6.96285699870730       -3.10134094485503        1.78247192855206
