106
 energy: -171.364173645331 gnorm: 0.000054096625 xtb: 6.7.1 (edcfbbe)
C           -8.20386335591155       -1.49005303296858        1.30389436759481
C           -8.27413591974133       -0.18762344368309        0.83396107480199
C           -7.12079854577037        0.55648631093772        0.67924056744538
C           -5.88559619267837       -0.00592677880091        0.99015213472480
C           -4.65631502005189        0.74868731361977        0.76085459795011
N           -4.72960408942880        2.06281860979347        0.58251338178070
C           -3.57380256765965        2.68344694768235        0.35966246019953
C           -3.57096229607570        4.14299700513673        0.27842147484680
C           -4.74849842099612        4.86002861613304        0.48045896369454
C           -4.73696433704077        6.23956793857784        0.41045528834432
C           -3.55525225451571        6.91272751052587        0.14112911357411
C           -2.38127416324773        6.20316714112879       -0.05977054958332
C           -2.38512963193495        4.82384809394382        0.00701917044661
N           -2.41647538807637        2.05182084657882        0.18079414957756
C           -2.44991626234181        0.73256086060555        0.32359512957864
C           -1.21352115992164       -0.00491250782454        0.04993870877234
C           -0.00162161376335        0.64745063144888        0.22301693704584
C            1.21183244318326       -0.00098159441274        0.04689766804894
C            2.44717734410618        0.74335090297180        0.30679537874620
N            2.41035213525169        2.05936980196162        0.13763028564611
C            3.56705520324813        2.69675609050443        0.29934216697094
C            3.56188535028377        4.15381324129552        0.18159948265622
C            4.73505383049753        4.87889350324048        0.38014236985072
C            4.72157938905560        6.25601226701150        0.27256331675491
C            3.54247145227548        6.91864198196106       -0.03197252596831
C            2.37291051988128        6.20098946013665       -0.22986431884227
C            2.37850643956759        4.82407570985101       -0.12461751876550
N            4.72433884857012        2.08329823869547        0.53370610917577
C            4.65443636346301        0.77277957824682        0.73830489450598
C            5.88622534903145        0.02580752460119        0.97854410928317
C            5.82464335303631       -1.27335437955212        1.47713598713819
C            6.98472939024919       -2.00332110257216        1.64376378426375
C            8.20957075421797       -1.44614796928123        1.31143211474508
C            8.27507824511539       -0.15100884002278        0.82109267933215
C            7.11920439075584        0.58703286141307        0.65671009878005
N            3.52466618106520        0.07192635565453        0.68986575043537
C            1.21402630905603       -1.34783437887373       -0.35840740862741
N            2.40413155237358       -2.02932077056317       -0.61946449958364
C            3.44986303359457       -1.56062349876337       -1.39275309517782
C            3.50002882396202       -0.45688099854847       -2.23195903924977
C            4.68739107239006       -0.20107004888876       -2.88953443625801
C            5.79504563007660       -1.03281603801357       -2.73959364867415
C            5.73446034391857       -2.15962401429946       -1.94514560280279
C            4.55274048898845       -2.43334138521703       -1.27024043751375
C            4.14575827899191       -3.48112297963274       -0.37566588881728
C            4.78937114697227       -4.59704547426646        0.14088007470084
C            4.10748761949929       -5.40068013101791        1.03358017182632
C            2.80611631361064       -5.09375140587878        1.42251401864942
C            2.14648436045559       -3.98698659233534        0.92176668446205
C            2.81715154127609       -3.18987387538404        0.00754656675640
C            0.00159707343061       -1.99932806946672       -0.55435110002538
C           -1.21265605948105       -1.35010929314339       -0.36171888583433
N           -2.40089598512451       -2.02990834442252       -0.63379152088222
C           -3.44338228651764       -1.55136480730026       -1.40585287998837
C           -3.49050868604721       -0.43628177737046       -2.23013055253730
C           -4.67500285640237       -0.17214150655861       -2.88959223356584
C           -5.78285793332387       -1.00637038820080       -2.75604645204710
C           -5.72486486253406       -2.14431814225076       -1.97742834408926
C           -4.54588530259442       -2.42672092793300       -1.30131480677593
C           -4.14182028756914       -3.48742959396764       -0.42077213061120
C           -4.78676505500510       -4.61204179945385        0.07470803272959
C           -4.10842117568222       -5.42908988286673        0.95787427093956
C           -2.80939955022294       -5.12683245874939        1.35800734024615
C           -2.14849311457694       -4.01156008200311        0.87811376242054
C           -2.81534353547435       -3.20063812566028       -0.02673941312240
N           -3.52503602339930        0.05172383223269        0.69695863069667
C           -5.81922763627317       -1.31254274414465        1.46819460585001
C           -6.97676967330507       -2.04860601395231        1.62540001616867
H           -9.10821314331648       -2.06968149778314        1.42052368765248
H           -9.23239187953329        0.24482396880063        0.58556876737973
H           -7.15373120878383        1.56841831709996        0.30656494008089
H           -5.65658097596200        4.31783890880855        0.69287967267726
H           -5.64989351908487        6.79521721256900        0.56725809222904
H           -3.54942511439719        7.99174543731636        0.08825634843252
H           -1.46215988320351        6.73080970518409       -0.26852140344689
H           -1.48277781970737        4.25374094745809       -0.14858408661195
H           -0.00315926116764        1.67953964297881        0.53557161055289
H            5.64132458872182        4.34487000724915        0.61934236156779
H            5.63107002090094        6.81800314768411        0.42670066087741
H            3.53534112323992        7.99574301415211       -0.11513665661864
H            1.45620934824142        6.72034802240471       -0.46803243157528
H            1.47988234054116        4.24746010762247       -0.27796045048309
H            4.86363442596959       -1.69311575629699        1.72901379682110
H            6.93303488145368       -3.01113069452443        2.02869305597260
H            9.11588426857087       -2.02117037234333        1.43541282107108
H            9.23157540216933        0.28041726517730        0.56427963729387
H            7.14831989136114        1.59303529777556        0.26800668896267
H            2.64596341918127        0.19367333525330       -2.35571926634081
H            4.75848908038850        0.66422762566550       -3.53222952222867
H            6.70913126463184       -0.79186234645389       -3.26138147219509
H            6.58761003278731       -2.81275812413770       -1.84159742118041
H            5.80439744556134       -4.82332227346753       -0.14885413745261
H            4.58878002156016       -6.27515069031335        1.44582013120110
H            2.30242329527065       -5.73148006445217        2.13394676770946
H            1.14628080172398       -3.74597768111382        1.24708026118609
H            0.00335959784103       -3.01907274770114       -0.91088822208275
H           -2.63636995000344        0.21638664951925       -2.34142794772613
H           -4.74364025239383        0.70184461655387       -3.52069362731356
H           -6.69483642675049       -0.75852392352971       -3.27829257846499
H           -6.57787590571098       -2.79956868827187       -1.88699963846913
H           -5.80000355740059       -4.83478962063185       -0.22387682393031
H           -4.59064340337794       -6.31066484073216        1.35355805672660
H           -2.30834606367751       -5.77529453960270        2.06155033852956
H           -1.14997946633358       -3.77556586303797        1.21197686279089
H           -4.85652958173110       -1.73316981601022        1.71203366267615
H           -6.92132572069579       -3.06211826047222        1.99451350229912
