106
 energy: -171.294221924733 gnorm: 0.000177581994 xtb: 6.7.1 (edcfbbe)
C           -8.26261733358352       -1.46885328746889        0.89997087602686
C           -8.29752774817281       -0.18552778133703        0.37679158660961
C           -7.13940801575172        0.56347087676773        0.29999943929065
C           -5.93398411762095        0.02436655045803        0.74005164523642
C           -4.69456913112412        0.78506694274280        0.60009114636493
N           -4.75196763285870        2.10786595019223        0.49070360162033
C           -3.57490954766538        2.74609328127914        0.35456976890960
C           -3.58382588422485        4.20415027758699        0.32333290017008
C           -4.78095085622021        4.90366074750803        0.47702661522614
C           -4.78243078490589        6.28433777253039        0.45404169368936
C           -3.59611232721664        6.98023911243843        0.27901183437941
C           -2.40315576109390        6.28933930610199        0.12603204734182
C           -2.39259243483982        4.90952437538938        0.14704400114624
N           -2.41534877745752        2.12987721477766        0.22995715206490
C           -2.43597505700400        0.79330588896139        0.30202325122800
C           -1.21479926627707        0.07371357464671        0.06142840612804
C            0.00183848080727        0.73274401570851        0.16852344021849
C            1.21436305458492        0.06978034609950        0.05776431494862
C            2.43988997535029        0.79058357914650        0.28667220827346
N            2.42187495238573        2.12382785375821        0.18128541879759
C            3.58432181012175        2.73940906287588        0.29338426029865
C            3.59657909401012        4.19636735210077        0.22158564812195
C            4.79195553441420        4.89862159965278        0.37477298508871
C            4.79588609542702        6.27807141418873        0.31064618361375
C            3.61385093062474        6.96952957344373        0.09397234764024
C            2.42264670504249        6.27570966575471       -0.05894881282170
C            2.40961805375228        4.89712267227199        0.00384915548872
N            4.75781598788268        2.10197209741340        0.44847489911719
C            4.69494154713406        0.78271817114533        0.59121047565434
C            5.93111164057236        0.02071492580963        0.75123411828374
C            5.89386733765869       -1.25531029916624        1.30717504590805
C            7.05315114521117       -1.99881586268533        1.40630223817805
C            8.25302924268896       -1.47848550723582        0.94772179622511
C            8.29502675602566       -0.20540289162172        0.40057816439901
C            7.14024769816256        0.54665030461586        0.30543360519115
N            3.56135192010866        0.10736310723470        0.56659529802405
C            1.20807041930952       -1.32556119434504       -0.24196667732728
N            2.40593066057379       -2.02212713714423       -0.44605065534840
C            3.38494902196802       -1.68755742079432       -1.36083904437048
C            3.39635490560408       -0.67090693626165       -2.30524657023817
C            4.53195905578796       -0.52716280297556       -3.07966895471922
C            5.62174291292043       -1.38255785085401       -2.93679677799412
C            5.59711691408535       -2.42340837457492       -2.02736991294135
C            4.46927771815294       -2.58573250376184       -1.23725683684094
C            4.10437175049796       -3.52207324098719       -0.20905075198116
C            4.73794640822289       -4.61628660367584        0.35947841267045
C            4.09761899618289       -5.29623945189965        1.37964681408163
C            2.84595363376133       -4.89088627984102        1.84045169216941
C            2.19401256293734       -3.80550451225058        1.28876759802905
C            2.82382553490982       -3.12828316857395        0.25233471266849
C           -0.00345537911598       -1.98585118044199       -0.38049939427355
C           -1.21205966348034       -1.32079749974117       -0.24540580556458
N           -2.41225407530716       -2.00946631197612       -0.46106947347098
C           -3.38119137424583       -1.66377288283898       -1.38302785194449
C           -3.38114686945095       -0.63702189605328       -2.31637833338198
C           -4.50794276199671       -0.48392362288446       -3.10187219537103
C           -5.59986127120163       -1.33984426282677       -2.98047294436073
C           -5.58623588971876       -2.39043079733991       -2.08206083091229
C           -4.46737632784244       -2.56226337557004       -1.28122055648078
C           -4.11397907339531       -3.51087038635889       -0.26021340017895
C           -4.75408266353331       -4.61146903565695        0.28826232407639
C           -4.12491952325923       -5.30413554038078        1.30683176222593
C           -2.87795336119460       -4.90521629042623        1.78577292679330
C           -2.21955603818890       -3.81376641678851        1.25417614284026
C           -2.83790935490537       -3.12364430113146        0.21923240986456
N           -3.56339940993695        0.10847639739504        0.56218918361452
C           -5.90393900648660       -1.26189062591327        1.27225375169210
C           -7.06651691314347       -2.00247192010367        1.35309646578216
H           -9.17038714959806       -2.05193219141122        0.95737177941060
H           -9.23188629278003        0.22891126053881        0.02729526980024
H           -7.14553203881648        1.56201331376063       -0.10917916540852
H           -5.69452875198175        4.34681816163410        0.61648088024413
H           -5.71076898783693        6.82377390679514        0.57407544007742
H           -3.60102667574909        8.06038354866169        0.26255457928140
H           -1.47974043550343        6.83346403407504       -0.00903590384494
H           -1.47447712441646        4.35609095583614        0.02852234491640
H            0.00366038428042        1.78492477105569        0.40492572094866
H            5.70212054871402        4.34511019716998        0.54610999276662
H            5.72278389820498        6.82001891393474        0.43037307436335
H            3.62083328873601        8.04866560241798        0.04449176020382
H            1.50285963944142        6.81634531285439       -0.22844227879789
H            1.49318242284826        4.34096992987657       -0.11504428937303
H            4.95297479822274       -1.64533903015639        1.66319602842631
H            7.01983927430798       -2.98792770705041        1.83906504155317
H            9.15820699506886       -2.06404113768539        1.01930923138711
H            9.23230693655856        0.19854113569680        0.04663032076866
H            7.15174257370729        1.53716439716551       -0.12267885993459
H            2.55369898378505       -0.00520755402212       -2.42006375630495
H            4.57539726985489        0.26670205174747       -3.81061636510213
H            6.49523269809813       -1.23071918766306       -3.55297908167323
H            6.43887954809155       -3.09144917423962       -1.92611186040896
H            5.71250631587712       -4.92484341587753        0.01264975408201
H            4.57421050322551       -6.15161015021648        1.83504128692862
H            2.37892679544288       -5.43587090036676        2.64733306084682
H            1.23202463002799       -3.48449797811343        1.65765709609695
H           -0.00505095263635       -3.03399998678531       -0.64611931676000
H           -2.53671529012238        0.02898525336855       -2.41470743684461
H           -4.54247284419690        0.31773792417997       -3.82472699843105
H           -6.46616921887105       -1.18076816060032       -3.60491237500815
H           -6.42945086219077       -3.05897903404936       -1.99770031723197
H           -5.72501611855123       -4.91526001141053       -0.07264488072517
H           -4.60675066293104       -6.16465412981511        1.74673641968675
H           -2.41981449965207       -5.46026793332623        2.59086643373390
H           -1.26127605857583       -3.49810452437823        1.63701008638488
H           -4.96617740519545       -1.66208569516211        1.62526471633597
H           -7.03872396166265       -2.99953993036512        1.76760204454232
