67
 energy: -114.321799955454 gnorm: 0.000040812638 xtb: 6.7.1 (edcfbbe)
C            5.61330676469704       -4.81477987553256        0.63323203261061
O            4.31604823507248       -4.58163545126111        0.12143726855584
C            3.89019236467968       -3.30517707981902       -0.03243625410635
C            2.58901481991309       -3.16870226535024       -0.55089666441674
C            2.01718179062420       -1.93469127466304       -0.75300081364158
C            2.75045973271336       -0.80234230720028       -0.41661148653585
C            4.07966690607283       -0.92833798330837        0.05351350506163
C            4.64955872950464       -2.17483075261953        0.25818877833082
C            4.59252386092415        0.40953061501080        0.18818472210063
C            5.81170438270900        0.92198149641178        0.58556856809656
C            5.99393170380198        2.30904183017702        0.59054375727304
O            7.22026906337980        2.73008293868978        0.98714743222759
C            7.50092493773389        4.11460576656588        1.02070642488949
C            4.94950285652625        3.15969519847820        0.20513405947718
C            3.72498657116691        2.65502121597124       -0.19240533412889
C            3.54769453195333        1.28098997271049       -0.20855465714875
N            2.43119646117849        0.53507667596075       -0.54360192572640
C            1.19952611870103        1.06781711550549       -0.89986490514681
N            1.19282799534384        2.13515321567876       -1.65198853232879
C            0.01630096405548        2.67652367682293       -1.98521807426418
N           -1.17725210315733        2.17136644721653       -1.65620229363680
C           -1.22065201924985        1.10595489468886       -0.90263325295824
N           -2.46970921156005        0.61468395867952       -0.54809632143063
C           -3.56401535710111        1.39643355302875       -0.22550686192026
C           -3.70008233512947        2.78013875731950       -0.22590178631644
C           -4.90741598141258        3.31143482069708        0.16493249771453
C           -5.98384838320044        2.49460410852031        0.56157564527900
O           -7.10880448977727        3.15977054767351        0.91731899990950
C           -8.24019382071486        2.42109122610142        1.33306262974006
C           -5.84737345277310        1.10841670227164        0.57156574751812
C           -4.63423486930494        0.56494796724126        0.17840386049640
C           -4.16482931179901       -0.79080867656577        0.06393463140637
C           -4.75785588368472       -2.01760218853513        0.28288457731270
C           -4.02774371743863       -3.18088871186369        0.01719631491595
O           -4.67491076064351       -4.34412914145062        0.27013670779531
C           -4.00818908241464       -5.57022397516152        0.04681008314484
C           -2.72922010719174       -3.09283158194012       -0.49941101553989
C           -2.13079871980157       -1.86726459549934       -0.72158490576299
C           -2.82832159404387       -0.71238072281510       -0.40516244726319
C           -0.02074744089525        0.48099666736844       -0.37374443883459
C           -0.03175633984157       -0.31777708849332        0.73794572480387
N           -0.03843656494019       -1.00764515741355        1.67802412246979
H            6.38071944820489       -4.40153841809415       -0.02727389659077
H            5.72490547087475       -4.39585331910310        1.63706875327237
H            5.71636191641213       -5.89752350143043        0.67724485456651
H            2.04976189349079       -4.07014081835133       -0.79362122405187
H            1.02843231297646       -1.85710542019381       -1.17461721543264
H            5.65957646820227       -2.24460128598335        0.62550499163528
H            6.62619023039108        0.28581825215640        0.89109145797550
H            8.53338144104130        4.19169339750383        1.35729655740348
H            6.84769886580881        4.63630937877128        1.72580116219945
H            7.40621884306669        4.56436706029923        0.02839966109869
H            5.08698386090853        4.22828092062611        0.21219659838735
H            2.92842988838012        3.31429301479431       -0.49791344013692
H            0.03062628315335        3.55550606935123       -2.60741181386227
H           -2.88473477722321        3.41227011506753       -0.53804991662341
H           -5.06057365164237        4.37872698032761        0.17625542011966
H           -8.59807766528542        1.76209366352540        0.53714755282413
H           -8.02295350458599        1.83341287133958        2.22939401698290
H           -9.00319534188557        3.16326397497759        1.56087135429072
H           -6.65003180439206        0.45714179865862        0.87403394945313
H           -5.76783764802085       -2.10587891258415        0.64834095854724
H           -3.76018277359630       -5.70083150739542       -1.01038889485240
H           -3.09964566864722       -5.64462535647385        0.65075127600294
H           -4.71280341913178       -6.34180638972644        0.35219265231070
H           -2.17474500197804       -3.98470501106230       -0.73941383899396
H           -1.13990142398718       -1.82571230186292       -1.14375220489303
