  55
        -91.05892622
 C         -1.6487193161        3.0798695708        2.3560186114
 C         -1.0960678313        1.9032708035        2.8321833552
 C         -1.4127272166        0.6929958732        2.2444976061
 C         -2.2786177886        0.6368524981        1.1522896146
 C         -2.8710225870        1.8311823146        0.7110743434
 C         -2.5494002327        3.0401975915        1.3046703690
 O         -3.7944998398        1.8536737930       -0.2956845762
 C         -4.0705802204        0.6732767208       -0.9270174502
 C         -4.9795293311        0.7191416127       -1.9713098629
 C         -5.2863214353       -0.4301195175       -2.6791731076
 C         -4.6642557247       -1.6210990548       -2.3498272136
 C         -3.7583032543       -1.6748627819       -1.3056092781
 C         -3.4603398908       -0.5371161138       -0.5602983083
 N         -2.5892217333       -0.5635171743        0.5275926314
 C         -1.7201351656       -1.6645522239        0.7104306307
 C         -2.1896350543       -2.9169624275        1.0909043631
 C         -1.3157372615       -3.9860115802        1.1872278394
 C          0.0328303091       -3.8253632601        0.9104349216
 C          0.5424254511       -2.5811057526        0.5420156472
 N          1.8367092324       -2.3721307969        0.3026817977
 C          2.3119453093       -1.1648314119        0.0213016665
 C          3.7091630062       -0.9626344670       -0.2137575584
 C          4.5784490438       -2.0625113905       -0.1389510354
 C          5.9223096670       -1.9121958803       -0.3624570426
 C          6.4318180670       -0.6499380472       -0.6687548850
 C          5.5959653661        0.4381562337       -0.7428997530
 C          4.2159805068        0.3229918366       -0.5168907238
 C          3.3137484628        1.4494807191       -0.5760405345
 C          3.7399813557        2.7587668260       -0.8435370258
 C          2.8561414445        3.8104856485       -0.8817442873
 C          1.4959380152        3.5990345662       -0.6519285551
 C          1.0429212522        2.3325889753       -0.3911486012
 C          1.9317801401        1.2457710380       -0.3485290761
 C          1.4261260278       -0.0571839743       -0.0593661442
 N          0.1271085430       -0.2537399764        0.1523780457
 C         -0.3532127903       -1.4556012292        0.4472071879
 H         -1.3928028408        4.0256582000        2.8065803301
 H         -0.4117114860        1.9239508898        3.6658522028
 H         -0.9945767918       -0.2214558582        2.6332715420
 H         -3.0151206763        3.9359254028        0.9262192213
 H         -5.4264756930        1.6689611705       -2.2167616524
 H         -5.9961314494       -0.3878337571       -3.4900074968
 H         -4.8799231780       -2.5190579003       -2.9076949776
 H         -3.2683244389       -2.6056616396       -1.0703076355
 H         -3.2367216823       -3.0369549342        1.3242407836
 H         -1.6866091771       -4.9537024004        1.4878927526
 H          0.7212902389       -4.6496418694        1.0056998680
 H          4.1521403602       -3.0254106512        0.0977073526
 H          6.5849674241       -2.7630825009       -0.3053689305
 H          7.4900584199       -0.5275496615       -0.8486020900
 H          6.0229758865        1.3990937616       -0.9825975372
 H          4.7845954543        2.9583668020       -1.0228939072
 H          3.2164787678        4.8072669425       -1.0903059482
 H          0.8065882053        4.4298665673       -0.6791865069
 H         -0.0026405955        2.1409867125       -0.2046649093
