55
 energy: -91.102782934250 gnorm: 0.000033826578 xtb: 6.7.1 (edcfbbe)
C           -4.92987689989420       -0.02455748979889        3.44632534055328
C           -4.27441192830791       -1.23346555250946        3.33261044836657
C           -3.50613908107051       -1.51240456845873        2.21250925774986
C           -3.38273371663994       -0.58954021903229        1.18156451547542
C           -4.02469360163367        0.64897427150274        1.32392061653810
C           -4.79491717327368        0.91980525749948        2.44022239017158
O           -3.91140382454862        1.65460969740902        0.39768187735367
C           -3.18675302889746        1.38830565058089       -0.73658986382492
C           -3.10945400330936        2.39055660426461       -1.68700152743462
C           -2.42616026932017        2.17522319389253       -2.87391582715491
C           -1.85247927631823        0.94248064682291       -3.11661723252787
C           -1.92889921298701       -0.06304213525340       -2.16716959954595
C           -2.55926258839513        0.15621915368857       -0.94868929317104
N           -2.62941994387841       -0.84018889133781        0.02948375268220
C           -1.69785529279053       -1.89278919418532       -0.00904141200062
C           -2.08143523673888       -3.21176680788398       -0.00063184479653
C           -1.12587749747350       -4.24121849265906       -0.01407898434524
C            0.21280086158163       -3.96729407339727       -0.04261208247487
C            0.65058525626113       -2.62634599305004       -0.06156795108023
N            1.96152628524439       -2.34499193856225       -0.08496459045868
C            2.32901521399429       -1.07759121803016       -0.10074235103499
C            3.73738815846809       -0.74849967899370       -0.11092628809092
C            4.68074207009091       -1.77894300465411       -0.07562020714018
C            6.02718253987966       -1.49907153540869       -0.06680067245449
C            6.44806231152736       -0.17429590845875       -0.09021076196542
C            5.52811028949901        0.85082883995648       -0.12838829200315
C            4.15130772866039        0.59847908876281       -0.14393837886967
C            3.16070647719115        1.66570495347659       -0.19819846401401
C            3.51050284247880        3.01817514960810       -0.28605602965352
C            2.55157535653614        4.00607274468252       -0.34757992753042
C            1.19982773276304        3.68114118120919       -0.32661744864063
C            0.82405720701676        2.36119946473380       -0.24048622667191
C            1.78770230977291        1.35087267513466       -0.17351752333869
C            1.36224459473752       -0.02752309097225       -0.10192718921594
N            0.07180815800302       -0.29312565970695       -0.06148150659995
C           -0.31057672859065       -1.57416982966456       -0.04570958488905
H           -5.53384001731776        0.19559916705479        4.31241972088314
H           -4.35158501355305       -1.97253730437280        4.11535695292049
H           -2.98415740951745       -2.45399731896209        2.15165920025475
H           -5.27269475323422        1.88429607783655        2.50694783203579
H           -3.59083225513203        3.33269626680853       -1.47772079083981
H           -2.36035261572901        2.96502265491877       -3.60571062344979
H           -1.34280435802085        0.75236933550461       -4.04877756902905
H           -1.48744949875747       -1.02707574277509       -2.36901371839684
H           -3.13234919123914       -3.46093314419692        0.00416913178891
H           -1.46875216984844       -5.26530479625680       -0.00773231697495
H            0.95595304372387       -4.74863348557965       -0.05007254627297
H            4.31614918481460       -2.79388394953124       -0.05297012490234
H            6.75241948133077       -2.29842903692588       -0.03879589117351
H            7.50352214356419        0.05572859403440       -0.07825201896327
H            5.89301182480270        1.86533009268122       -0.14293770836313
H            4.54822739024073        3.30995490687665       -0.31258312075731
H            2.85558514357461        5.04047673834502       -0.41639114915661
H            0.45261966115041        4.45832351093742       -0.38098499494864
H           -0.21546968046649        2.07317514241926       -0.23184740263840
