55
 energy: -91.064744767116 gnorm: 0.000100017974 xtb: 6.7.1 (edcfbbe)
C           -1.62892872451475        3.07578755390397        2.35734058860720
C           -1.09724233475611        1.89595694692872        2.84747734825895
C           -1.42337594964712        0.68587443217974        2.26350712121941
C           -2.27766443406197        0.63347824279291        1.16308099957297
C           -2.84875689436373        1.83152650434813        0.70659512342601
C           -2.51742539593206        3.04014721116342        1.29526176559438
O           -3.75875590382158        1.86003486526282       -0.31310400223917
C           -4.04085438822943        0.67798609632281       -0.94114332587981
C           -4.93175752855204        0.72977689777865       -2.00018697132132
C           -5.24480897005709       -0.41993922971548       -2.70517939043098
C           -4.64776459522121       -1.61764849507788       -2.35627259606013
C           -3.75903448994996       -1.67662301335887       -1.29701397949779
C           -3.45423427577551       -0.53788436002644       -0.55713297912945
N           -2.59779346102124       -0.56960864075452        0.54439220236708
C           -1.72727290948769       -1.67066259826677        0.72552590061614
C           -2.19364513951031       -2.92040062858677        1.11373062291427
C           -1.31753203560414       -3.98833280849487        1.21263967730028
C            0.02920452135563       -3.82733914544835        0.93189358687716
C            0.53608865025996       -2.58457911003495        0.55662618858320
N            1.82985788900266       -2.37335621425328        0.31136462398228
C            2.30332339477548       -1.16483795117322        0.02219788029450
C            3.69894116241102       -0.96103843526729       -0.21915169002106
C            4.57031869649021       -2.05998470202712       -0.15315764199899
C            5.91263466949189       -1.90691165171928       -0.38443477936837
C            6.41883174006739       -0.64313909632763       -0.68854773080176
C            5.58084939409782        0.44397857935206       -0.75443059719322
C            4.20238556725590        0.32553422978573       -0.52207464199780
C            3.29757533123414        1.45091327658557       -0.57656316482664
C            3.72071838207812        2.76187069694134       -0.84067355210231
C            2.83383372971876        3.81122586185588       -0.87675098598314
C            1.47450929235571        3.59546352961158       -0.64846054314723
C            1.02489227222850        2.32708700331452       -0.39000206572395
C            1.91711802018772        1.24333732138766       -0.34910943160718
C            1.41563789940346       -0.06171316157865       -0.05957436340021
N            0.11656557312932       -0.26118087812059        0.15280869791250
C           -0.36253294333205       -1.46293446400983        0.45692605393902
H           -1.36550087941810        4.02156236091147        2.80370378093512
H           -0.42173204833918        1.91293227782581        3.68845518751886
H           -1.01921694434893       -0.23146729941730        2.66114958293966
H           -2.96555979979934        3.93954205633952        0.90407320075431
H           -5.35958112265458        1.68480437951945       -2.26010350690427
H           -5.94057212493902       -0.37262005644301       -3.52784560670085
H           -4.86851844758173       -2.51694008097117       -2.91015233394914
H           -3.28776712544472       -2.61324870725673       -1.04693983763399
H           -3.23995844041816       -3.04129144056605        1.34971162531819
H           -1.68648192336844       -4.95514097551600        1.51846823457291
H            0.71814055074506       -4.65140457486623        1.02625362179614
H            4.14803721668938       -3.02496940436794        0.08230444685023
H            6.57657078790758       -2.75711064232858       -0.33397752453984
H            7.47576983853024       -0.51864091825171       -0.87392438818522
H            6.00482231864296        1.40638225121813       -0.99344309342853
H            4.76496526820687        2.96493317606321       -1.01803988734464
H            3.19170176909842        4.80969224774495       -1.08166155145959
H            0.78240066013993        4.42394304982050       -0.67492750870980
H           -0.02034508165906        2.13313718963394       -0.20447217613634
