55
 energy: -91.102783800970 gnorm: 0.000033813235 xtb: 6.7.1 (edcfbbe)
C           -1.86191127167652        2.97401704209248        2.53742340785056
C           -1.30946704996492        1.79238149491595        2.99157894594140
C           -1.55053068820680        0.60490537805873        2.32067184547808
C           -2.32826131869869        0.58396091710288        1.16965183873773
C           -2.93044207981407        1.77548402556905        0.75204240223032
C           -2.68842469497421        2.95999175990076        1.42446817248580
O           -3.78924551040479        1.82568138634702       -0.31684114364023
C           -4.06440874354487        0.64572856903640       -0.96029424710151
C           -4.96687843542899        0.70737164424293       -2.00646084779742
C           -5.27161623636677       -0.42959469249783       -2.73906415860931
C           -4.65297027374622       -1.62263291035017       -2.42612856963488
C           -3.75236848988463       -1.69118260394258       -1.37403479218306
C           -3.45680124291659       -0.56876265188172       -0.61076093800318
N           -2.56594430534191       -0.60148149008159        0.46764362930042
C           -1.67900481561949       -1.67899782742560        0.63899055689101
C           -2.11143973201962       -2.93634074076912        0.98413574316756
C           -1.20356647417216       -3.99923493624017        1.12191632959255
C            0.13673412621144       -3.81840493761453        0.92493813094502
C            0.62523107961567       -2.54095133804364        0.57908810193788
N            1.93775118130101       -2.35218562528697        0.37927230230194
C            2.35355277272482       -1.14215170350848        0.05598324559594
C            3.76268986144617       -0.91671235809773       -0.17944436976540
C            4.65200627624783       -1.99070036187071       -0.08646435641885
C            5.99530665204934       -1.81318003309018       -0.32169998643260
C            6.46704652950419       -0.54958685988172       -0.65862553266093
C            5.60109962790887        0.51829881912296       -0.75027866614033
C            4.22974604762740        0.37119324910021       -0.51097972060494
C            3.29771855946805        1.48861870314735       -0.58769074797923
C            3.70886795123578        2.79873845711961       -0.85932854403660
C            2.80617085076005        3.83866143051451       -0.91377879959898
C            1.45201093479710        3.61116480757565       -0.69532207050892
C            1.01660977423404        2.33479396574408       -0.42664156047234
C            1.92234705752247        1.27149297050340       -0.37298840349733
C            1.43737448133401       -0.05507048292357       -0.07104368896192
N            0.14349180809457       -0.23382326988871        0.10600172976114
C           -0.28763520178634       -1.45608817745712        0.43424027602737
H           -1.66844007204180        3.90320143257096        3.05007628907935
H           -0.68801141279407        1.78485776501907        3.87393800434444
H           -1.12395406223736       -0.31589970690987        2.68824776321653
H           -3.15656209183278        3.86052348890908        1.05972973595022
H           -5.41230188768631        1.66166545102024       -2.23858858022657
H           -5.97779447010321       -0.37159007239575       -3.55226669508203
H           -4.86242838336585       -2.51332739801544       -2.99854466953039
H           -3.26295281806048       -2.62755942725023       -1.15860504640227
H           -3.16260887507119       -3.10745879440142        1.16381791446232
H           -1.58403925475418       -4.97232689873304        1.39520723581391
H            0.84320997503533       -4.62698682338753        1.02444610358357
H            4.24821563124483       -2.95698552052487        0.17197755726082
H            6.67863508621851       -2.64596709989293       -0.24922463708365
H            7.51976877466949       -0.40127311723525       -0.85052888029581
H            6.00408385233419        1.48226827832790       -1.01663260912047
H            4.75152656007913        3.01689774001558       -1.02659792356518
H            3.15696709820535        4.83852932234825       -1.12437880380994
H            0.74976703298163        4.43013376698323       -0.73313665121813
H           -0.02529792803760        2.12448077801023       -0.24268607125398
