  54
        -90.40479740
 C         -5.9921647290        0.1615245646        1.2847926594
 C         -5.0336630567        0.0061317072        0.0892012339
 C         -5.8333871247       -0.2001731674       -1.2109732809
 C         -4.1635814072       -1.2118485641        0.3248026647
 C         -4.7509760353       -2.4637857156        0.4473635280
 C         -4.0040314915       -3.6042712035        0.6776411405
 C         -2.6279726957       -3.5043855219        0.8008185813
 C         -2.0176529865       -2.2748994618        0.6869982775
 C         -2.7704810911       -1.1204742739        0.4403880616
 N         -2.1289636111        0.0992129557        0.3266543463
 C         -0.7148141522        0.1443757083        0.4590705634
 C         -0.1458995644        0.5224103907        1.6575367522
 C          1.2437766932        0.5886775283        1.8590007036
 C          2.0677493715        0.2600816882        0.8093002220
 C          1.4784717534       -0.1267396033       -0.4200715594
 C          2.4580871246       -0.4306017243       -1.3957707080
 C          2.0439063509       -0.8208507339       -2.6454165695
 C          0.6593923365       -0.8977327716       -2.8941643754
 C         -0.2899267132       -0.6036229531       -1.9456270202
 C          0.1079942471       -0.2010129205       -0.6491818435
 C          3.7394576071       -0.2267478747       -0.7499607490
 N          4.9566292116       -0.3751046651       -1.2305042913
 C          5.9630719582       -0.1178767834       -0.4169174273
 N          7.2508452113       -0.1671810468       -0.5823132891
 O          7.8177266306        0.2062232257        0.6045693644
 N          6.8724867739        0.5007462064        1.5490475538
 C          5.7128411030        0.3229877402        0.9891634528
 N          4.4822716719        0.4628486906        1.4409311433
 C          3.4978124492        0.1977617081        0.6036100165
 C         -2.8164181922        1.2705698384        0.0677625643
 C         -2.1053925309        2.4648901989       -0.0997545558
 C         -2.7634573723        3.6495739269       -0.3456791452
 C         -4.1457723833        3.6641602101       -0.4327220526
 C         -4.8490431257        2.4827660884       -0.2864674899
 C         -4.2129357226        1.2730581248       -0.0429594822
 H         -6.6102899785       -0.7238526847        1.4024976672
 H         -6.6457282986        1.0181352155        1.1475176932
 H         -5.4227132191        0.3069452647        2.2007127913
 H         -5.1521910982       -0.3160611962       -2.0521257506
 H         -6.4543861662       -1.0890981362       -1.1475101159
 H         -6.4793376704        0.6504597554       -1.4084828141
 H         -5.8229025036       -2.5574644140        0.3641936912
 H         -4.4931316967       -4.5616868308        0.7660733428
 H         -2.0296907163       -4.3824617573        0.9888087569
 H         -0.9464826068       -2.1995071192        0.7917894568
 H         -0.8025748598        0.7795729728        2.4766028112
 H          1.6385462115        0.8882995114        2.8167510054
 H          2.7512946427       -1.0638366287       -3.4228117228
 H          0.3367326892       -1.2031782571       -3.8786892711
 H         -1.3408080131       -0.6789122554       -2.1839735360
 H         -1.0282095094        2.4548699464       -0.0387051275
 H         -2.1972530109        4.5597172439       -0.4699660887
 H         -4.6724661081        4.5869767168       -0.6191249203
 H         -5.9250473565        2.5101342706       -0.3652145808
