  54
  -90.1008165556000       0.532552513139278      !
 C         -5.8965052759       -0.2022165597        1.4487324359
 C         -5.0449759969       -0.0274641697        0.1769447768
 C         -5.9550168327        0.1674503460       -1.0501516763
 C         -4.2171085690       -1.2801243868       -0.0266615881
 C         -4.8492259878       -2.4952563771       -0.2529394219
 C         -4.1388852377       -3.6638371335       -0.4572385763
 C         -2.7541244957       -3.6306720695       -0.4467229462
 C         -2.0997043241       -2.4407977417       -0.2163757233
 C         -2.8169435042       -1.2599145243        0.0095041962
 N         -2.1311506628       -0.0836822124        0.2502270926
 C         -0.7180209211       -0.1307010724        0.3941418320
 C         -0.1689981556       -0.5174365910        1.5992462125
 C          1.2166109967       -0.5909829765        1.8227804549
 C          2.0580404044       -0.2613673337        0.7874484086
 C          1.4898456869        0.1342982674       -0.4490637754
 C          2.4866386670        0.4400723697       -1.4068262030
 C          2.0945144497        0.8403968128       -2.6604231459
 C          0.7144956797        0.9248639843       -2.9310532073
 C         -0.2515749457        0.6290196148       -1.9999893335
 C          0.1232522401        0.2165757807       -0.6995844235
 C          3.7566766319        0.2283043200       -0.7411581740
 N          4.9823241562        0.3759882663       -1.1999753372
 C          5.9741245185        0.1124528973       -0.3706678312
 N          7.2646677954        0.1609396847       -0.5130450489
 O          7.8103505663       -0.2199096518        0.6812937800
 N          6.8483442713       -0.5185490906        1.6076305101
 C          5.6988980779       -0.3359917593        1.0286679848
 N          4.4605399001       -0.4759599785        1.4580045113
 C          3.4912242391       -0.2030165431        0.6057261959
 C         -2.7796119166        1.1296734218        0.3899980375
 C         -2.0286657158        2.2945440852        0.5878277913
 C         -2.6469231267        3.5174428902        0.7276130611
 C         -4.0288480537        3.5996101298        0.6826635116
 C         -4.7732273632        2.4487434206        0.5005810717
 C         -4.1780638154        1.2037452219        0.3484448385
 H         -6.5328695919       -1.0792210916        1.3696341635
 H         -6.5281435601        0.6662449103        1.6127548025
 H         -5.2494168149       -0.3247522615        2.3152560814
 H         -6.5630058299        1.0606950751       -0.9454238706
 H         -5.3499979839        0.2669963433       -1.9489983164
 H         -6.6216461135       -0.6800191932       -1.1778566624
 H         -5.9274614179       -2.5377814238       -0.2694061087
 H         -4.6626665212       -4.5911957846       -0.6286719796
 H         -2.1832643030       -4.5302072396       -0.6181243600
 H         -1.0208892928       -2.4155828691       -0.2137648776
 H         -0.8397093124       -0.7757792770        2.4065621343
 H          1.5949563594       -0.8963363703        2.7853569603
 H          2.8154374197        1.0856704775       -3.4245935414
 H          0.4092067764        1.2382897561       -3.9186399411
 H         -1.2981906755        0.7108279274       -2.2544886685
 H         -0.9525300395        2.2329981172        0.6336714176
 H         -2.0498649566        4.4040066583        0.8757708695
 H         -4.5243884776        4.5512261497        0.7951284515
 H         -5.8493436016        2.5283277612        0.4821935205
  54
  -90.1005779466000       0.413718874474767      !
 C         -5.9949829266       -0.3157396050        1.2422997679
 C         -5.0337456650        0.0107074132        0.0839533068
 C         -5.8307102886        0.3463623884       -1.1907063267
 C         -4.1734553306       -1.2071952505       -0.1855642153
 C         -4.7704743686       -2.3993980234       -0.5723730338
 C         -4.0327275963       -3.5431175834       -0.8158814454
 C         -2.6563795214       -3.5117420534       -0.6630115871
 C         -2.0366305075       -2.3437979476       -0.2771373763
 C         -2.7801042717       -1.1807356609       -0.0430494713
 N         -2.1292311270       -0.0220639683        0.3389989959
 C         -0.7152278642       -0.0448628890        0.4785246315
 C         -0.1474644476       -0.1806185803        1.7283687538
 C          1.2419961711       -0.2113959740        1.9396294914
 C          2.0669525622       -0.1008647794        0.8460083918
 C          1.4788630889        0.0393198962       -0.4356830015
 C          2.4593974333        0.1417713160       -1.4515685259
 C          2.0464401612        0.2854820241       -2.7532091467
 C          0.6622180473        0.3253357603       -3.0120646931
 C         -0.2880040394        0.2245259667       -2.0249751687
 C          0.1086319965        0.0736229936       -0.6754885356
 C          3.7401168719        0.0608781288       -0.7779579406
 N          4.9577267132        0.1065948009       -1.2777326982
 C          5.9633721576        0.0099744478       -0.4289933284
 N          7.2512808907        0.0203051801       -0.6002563549
 O          7.8170149426       -0.1150619544        0.6371184666
 N          6.8708882545       -0.2139073886        1.6206504150
 C          5.7118010090       -0.1443257454        1.0362519951
 N          4.4808252619       -0.1862521733        1.5062489538
 C          3.4971823044       -0.0875534928        0.6326112478
 C         -2.8071682961        1.1608942235        0.5685786416
 C         -2.0868004344        2.3171858473        0.8911936205
 C         -2.7352928887        3.5069578990        1.1379805253
 C         -4.1171701878        3.5662015839        1.0638904932
 C         -4.8296183490        2.4301787632        0.7269305943
 C         -4.2032594455        1.2185992277        0.4679485712
 H         -6.6200095853       -1.1696068606        0.9971905022
 H         -6.6417519192        0.5298196386        1.4579174828
 H         -5.4274748870       -0.5521639324        2.1402808660
 H         -5.1476383196        0.5699595174       -2.0082713382
 H         -6.4584592642       -0.4891085279       -1.4869740345
 H         -6.4697134451        1.2103941965       -1.0327110951
 H         -5.8427851844       -2.4434887760       -0.6860602968
 H         -4.5291694055       -4.4524178520       -1.1165515306
 H         -2.0652148114       -4.3967601941       -0.8406817437
 H         -0.9652815354       -2.3250910263       -0.1509129327
 H         -0.8049012315       -0.2660528650        2.5820092546
 H          1.6358293553       -0.3216783411        2.9374446890
 H          2.7545565276        0.3668929736       -3.5629788879
 H          0.3405370434        0.4403705885       -4.0367518565
 H         -1.3386266108        0.2589989974       -2.2736373283
 H         -1.0099263711        2.2749572630        0.9432483833
 H         -2.1619810439        4.3865802553        1.3869253377
 H         -4.6364238822        4.4910375083        1.2608593430
 H         -5.9051276532        2.4953627935        0.6655628080
  54
  -90.0982141475000       3.391395840792830E-002 !
 C         -5.0309368766       -0.4072522503        2.0316716619
 C         -4.9792042487       -0.1017813998        0.5169436203
 C         -6.4135578081       -0.0031475625       -0.0067608068
 C         -4.2031917721       -1.2316770115       -0.1311297636
 C         -4.8129405925       -2.3586291486       -0.6591381254
 C         -4.0745578844       -3.4386197070       -1.1139415763
 C         -2.6933339596       -3.4127854268       -1.0291418729
 C         -2.0585460581       -2.2966015115       -0.5270749662
 C         -2.8002541220       -1.1948133737       -0.0938413346
 N         -2.1518157278       -0.0557414355        0.3547468746
 C         -0.7369861419       -0.0806317559        0.4881882289
 C         -0.1809783446       -0.3570823137        1.7181859322
 C          1.2073077454       -0.4138328427        1.9379231836
 C          2.0419641873       -0.1827673454        0.8716103779
 C          1.4659400612        0.1035164938       -0.3914859070
 C          2.4558637371        0.3130328035       -1.3813203955
 C          2.0551890209        0.5981860354       -2.6634212405
 C          0.6735606299        0.6668919924       -2.9293451549
 C         -0.2860196734        0.4616464924       -1.9677367751
 C          0.0983323489        0.1668858407       -0.6384477212
 C          3.7301844759        0.1502246480       -0.7104291802
 N          4.9524084379        0.2405883380       -1.1923988106
 C          5.9502639165        0.0386368443       -0.3532689044
 N          7.2394821508        0.0545273125       -0.5128190176
 O          7.7936132766       -0.2261849114        0.7053030617
 N          6.8384509908       -0.4257084784        1.6642812152
 C          5.6849745364       -0.2779371626        1.0835601551
 N          4.4497792826       -0.3604991637        1.5361649951
 C          3.4741575600       -0.1542759567        0.6725630542
 C         -2.8108188704        1.1621672679        0.3834064245
 C         -2.0800897869        2.3522347405        0.4195997060
 C         -2.7259437984        3.5699757301        0.3891248841
 C         -4.1072418538        3.6142146787        0.3137640317
 C         -4.8350156230        2.4358079093        0.3094186131
 C         -4.2142636295        1.1978754269        0.3592620398
 H         -5.5459697851       -1.3494407190        2.2051808509
 H         -5.5588536276        0.3865704591        2.5552184954
 H         -4.0268130870       -0.4826208827        2.4428517182
 H         -6.4221207095        0.2098820436       -1.0734003769
 H         -6.9499522889       -0.9299700224        0.1743433516
 H         -6.9575184135        0.7783290901        0.5155681973
 H         -5.8872790151       -2.4165706617       -0.7142154477
 H         -4.5800895030       -4.3023368862       -1.5170100465
 H         -2.1081121117       -4.2569498005       -1.3597270364
 H         -0.9811758012       -2.2711173388       -0.4731754263
 H         -0.8449845277       -0.5407075252        2.5508512843
 H          1.5915702862       -0.6348084454        2.9211769575
 H          2.7709532961        0.7649622535       -3.4532727447
 H          0.3610344852        0.8910303808       -3.9386647567
 H         -1.3341357832        0.5248312175       -2.2214890318
 H         -1.0025961424        2.3172746282        0.4678661181
 H         -2.1493900765        4.4816192504        0.4172347604
 H         -4.6213308971        4.5619659102        0.2756837190
 H         -5.9099573827        2.5009483427        0.2765230496
  54
  -90.0970973160000       1.040203385470645E-002 !
 C         -5.1246108602       -0.5061274932        1.9911457524
 C         -4.9934247365       -0.0942268378        0.5074638395
 C         -6.3966784511        0.0679508608       -0.0862727695
 C         -4.2101951988       -1.1954112530       -0.1833552231
 C         -4.8271074930       -2.3207155083       -0.7087843076
 C         -4.0991912734       -3.3887805342       -1.2049633182
 C         -2.7163952638       -3.3594357509       -1.1545824466
 C         -2.0742749964       -2.2511395334       -0.6459608650
 C         -2.8066842402       -1.1541231632       -0.1828192764
 N         -2.1473199560       -0.0266128550        0.2750081969
 C         -0.7345312092       -0.0480852285        0.4191519511
 C         -0.1933736191       -0.1756708099        1.6809108607
 C          1.1909229635       -0.2064581777        1.9241637320
 C          2.0395461451       -0.1016796579        0.8488289422
 C          1.4800659180        0.0353049465       -0.4461638117
 C          2.4838001051        0.1339429835       -1.4397925894
 C          2.1013366857        0.2738697085       -2.7512160500
 C          0.7235398908        0.3180135045       -3.0413669500
 C         -0.2493410836        0.2225783979       -2.0759018070
 C          0.1156174060        0.0699870522       -0.7171638589
 C          3.7489894433        0.0538521012       -0.7373850739
 N          4.9777647079        0.0989631564       -1.2089535018
 C          5.9637727023        0.0055021978       -0.3372295687
 N          7.2551810236        0.0161123587       -0.4787655045
 O          7.7926742754       -0.1155832112        0.7714727252
 N          6.8242480569       -0.2124216559        1.7332562550
 C          5.6788590166       -0.1455507079        1.1223156060
 N          4.4374592434       -0.1862481330        1.5637296104
 C          3.4740254823       -0.0901883160        0.6677890141
 C         -2.8141841537        1.1765753358        0.4291621031
 C         -2.0824197315        2.3649868215        0.5100372674
 C         -2.7253881509        3.5773828262        0.6362359185
 C         -4.1083740584        3.6191190594        0.6760184604
 C         -4.8345965696        2.4429664444        0.5991517477
 C         -4.2159701580        1.2078852043        0.4756409084
 H         -4.1417156094       -0.6261920535        2.4421790117
 H         -5.6578210018       -1.4506202520        2.0723074299
 H         -5.6675805969        0.2560511190        2.5453688257
 H         -6.3389125575        0.3582595349       -1.1328734643
 H         -6.9585135416       -0.8574628475       -0.0067854657
 H         -6.9605954368        0.8194797428        0.4574070541
 H         -5.9023173584       -2.3877755428       -0.7281617296
 H         -4.6130131007       -4.2470751568       -1.6089276380
 H         -2.1363332979       -4.1960225871       -1.5123432235
 H         -0.9966057854       -2.2303539309       -0.6069152898
 H         -0.8687740535       -0.2553573437        2.5209059475
 H          1.5619592684       -0.3114831450        2.9311393850
 H          2.8282171022        0.3502717659       -3.5447300269
 H          0.4251845506        0.4335550473       -4.0730142068
 H         -1.2937043727        0.2621111979       -2.3490688458
 H         -1.0045757885        2.3302745938        0.4677013869
 H         -2.1471714481        4.4862161668        0.6998116966
 H         -4.6234290425        4.5619283974        0.7750463984
 H         -5.9090712751        2.5063990749        0.6493042556
  54
  -90.0970028627000       9.412620123320220E-003 !
 C         -4.6910200828       -0.6205327494        2.1764859827
 C         -4.9151427779       -0.1350657197        0.7253166144
 C         -6.4207749914       -0.0150607994        0.4881857248
 C         -4.2540102791       -1.1552512907       -0.1806390701
 C         -4.9468259364       -2.1874376757       -0.7913594429
 C         -4.2867656341       -3.2065295026       -1.4583676814
 C         -2.9032454724       -3.2255978852       -1.4857469986
 C         -2.1887641726       -2.1956160549       -0.9096314580
 C         -2.8532561471       -1.1312317191       -0.2973021339
 N         -2.1511536665       -0.0421154679        0.1962266268
 C         -0.7423193965       -0.0756439282        0.3420778751
 C         -0.2209081571       -0.0953399242        1.6207304053
 C          1.1563857490       -0.1002699234        1.8934423613
 C          2.0249729097       -0.0792000717        0.8289181939
 C          1.4900276213       -0.0497079674       -0.4828404241
 C          2.5145669328       -0.0067340005       -1.4600296831
 C          2.1606043049        0.0493960703       -2.7855514155
 C          0.7892944213        0.0747453569       -3.1061051646
 C         -0.2035799622        0.0360431354       -2.1572080028
 C          0.1304110922       -0.0402003349       -0.7832493110
 C          3.7652294834       -0.0164086839       -0.7286234935
 N          5.0037724277        0.0202090766       -1.1751151627
 C          5.9718149284        0.0197097809       -0.2795900362
 N          7.2654309150        0.0532313901       -0.3936621382
 O          7.7767211340        0.0354610477        0.8743609108
 N          6.7890096821       -0.0106928453        1.8199206003
 C          5.6568976149       -0.0222882507        1.1819715114
 N          4.4070728092       -0.0598836568        1.5974860475
 C          3.4621158544       -0.0575919826        0.6775573683
 C         -2.8026164344        1.1648937509        0.4089940380
 C         -2.0769292787        2.3579130047        0.3970029974
 C         -2.7218225439        3.5675054700        0.5479788251
 C         -4.0980750951        3.6008979508        0.6935359639
 C         -4.8194605530        2.4186367449        0.7105000995
 C         -4.1941081911        1.1888602019        0.5827059689
 H         -3.6299874271       -0.7313950484        2.3879709120
 H         -5.1726732257       -1.5844625786        2.3255744915
 H         -5.1102900482        0.0966436245        2.8788714080
 H         -6.8599047465        0.6810829647        1.1974012177
 H         -6.6299484681        0.3278718124       -0.5226202194
 H         -6.9068530682       -0.9735911791        0.6470840800
 H         -6.0228888142       -2.2180832978       -0.7445592122
 H         -4.8530749976       -3.9955687995       -1.9281356543
 H         -2.3766632173       -4.0380848083       -1.9623953970
 H         -1.1110260007       -2.2141668468       -0.9376846441
 H         -0.9117828146       -0.1030145857        2.4520877617
 H          1.5082222219       -0.1195307313        2.9126376002
 H          2.9041789856        0.0807880058       -3.5665307184
 H          0.5120828169        0.1311901308       -4.1485346583
 H         -1.2412402266        0.0645544713       -2.4557925678
 H         -1.0068696555        2.3308974562        0.2578881784
 H         -2.1500497650        4.4826858046        0.5404290490
 H         -4.6114207526        4.5437235537        0.8012988382
 H         -5.8884441210        2.4715868519        0.8354236965
