  130
       -202.52241018
 O         -7.2400070446       -1.2998392443       -1.0263926538
 P         -7.3586970809        0.0034356550       -0.3596112256
 C         -9.0570694490        0.6611655420       -0.4021950697
 C        -10.0352118840       -0.1243490339       -0.9937768410
 C        -11.3415278068        0.3270432087       -1.0629508946
 C        -11.6694402173        1.5680374778       -0.5426980320
 C        -10.6918397475        2.3582250071        0.0430560777
 C         -9.3864735736        1.9090575147        0.1128494558
 C         -6.3449256035        1.3284546979       -1.0863947414
 C         -5.9920126064        1.1830262339       -2.4190916283
 C         -5.2208529688        2.1480755208       -3.0408706388
 C         -4.8043137315        3.2620036230       -2.3305876277
 C         -5.1662558281        3.4136128182       -1.0012691816
 C         -5.9401505473        2.4520304925       -0.3785185356
 C         -6.9159824185        0.0114525420        1.4096408107
 C         -7.8135680899        0.0830519411        2.4580858902
 C         -7.3527950828        0.0749170054        3.7652903032
 C         -5.9907714965       -0.0080037151        4.0197201613
 C         -5.0820544570       -0.0913100979        2.9828448142
 C         -5.5468168675       -0.0970212934        1.6709535493
 O         -4.7544343283       -0.2677810382        0.5854191059
 C         -3.4505148862        0.1171761683        0.6401279076
 C         -3.0298500138        1.3645353433        1.1428565604
 C         -1.7229718563        1.7370355361        1.0864593868
 C         -0.6985374608        0.8738960502        0.5343705749
 C          0.6469523570        1.2571705973        0.4406822634
 C          1.1665041699        2.4398391395        1.0734773979
 C          2.4813776620        2.7844648147        0.9899581824
 C          3.4034646081        1.9985548233        0.2726191329
 C          4.8357576719        2.4280064845        0.1126363645
 C          5.7981232418        1.2695357473        0.0115313558
 C          5.6202834007        0.1447369612        0.8107539172
 C          6.5196291437       -0.9008372058        0.7698971305
 C          7.6209501053       -0.8415444698       -0.0803472214
 N          8.5264065997       -1.9076801005       -0.1372092041
 C          9.8991646483       -1.8092150456       -0.0400085391
 C         10.6917420186       -0.6917449274        0.1842110773
 C         12.0590219761       -0.8771443617        0.2654708225
 C         12.6302677628       -2.1409025898        0.1378915086
 C         11.8444387696       -3.2605401379       -0.0604491768
 C         10.4690824006       -3.0993962407       -0.1465745716
 C          9.3746024409       -4.0150694489       -0.3229065322
 C          9.2978542704       -5.3889022132       -0.5010455881
 C          8.0529204829       -5.9655326851       -0.6688883793
 C          6.8972716831       -5.1882329120       -0.6753987319
 C          6.9487005844       -3.8181545217       -0.5004587807
 C          8.1941022149       -3.2362201622       -0.3072510184
 C          7.8099271466        0.2859128723       -0.8744371830
 C          6.9092217792        1.3315637516       -0.8198809365
 C          4.8539439510        3.3570159481       -1.0880605182
 C          4.5067261935        3.0812933901       -2.3942801135
 C          4.5706210588        4.1045187632       -3.3287931134
 C          4.9609769167        5.3844595750       -2.9574829826
 C          5.3010559592        5.6693258845       -1.6457456618
 C          5.2475704430        4.6503511081       -0.7079703232
 C          5.5491073156        4.6444083354        0.7120950838
 C          5.9982970027        5.6519035993        1.5514808372
 C          6.2064245143        5.3584689373        2.8892414346
 C          5.9731148495        4.0832406888        3.3816227091
 C          5.5241836460        3.0689884031        2.5450846778
 C          5.3111748267        3.3565723904        1.2150300134
 C          2.9115948280        0.8590750741       -0.3979094633
 C          1.6041388187        0.4927670055       -0.3134577795
 C         -1.1557102422       -0.4177367287        0.1080148987
 C         -2.4670655843       -0.7786737191        0.1448801669
 P         -2.9039913101       -2.4987769219       -0.2387777481
 O         -1.7102361273       -3.3481235389       -0.4143108744
 C         -3.9435235844       -2.4755165794       -1.7313909159
 C         -3.8837588973       -1.4208576292       -2.6266493605
 C         -4.5693604303       -1.5038767442       -3.8265043913
 C         -5.3206727726       -2.6282021260       -4.1227079049
 C         -5.3751853818       -3.6844459895       -3.2273959134
 C         -4.6751588657       -3.6141969244       -2.0380050195
 C         -3.9481610291       -3.0115200848        1.1688538263
 C         -5.3332527042       -3.0759540571        1.1310649904
 C         -6.0316513478       -3.4204703432        2.2753827137
 C         -5.3565014887       -3.6941384518        3.4534756864
 C         -3.9726855785       -3.6293646206        3.4910720790
 C         -3.2706619479       -3.2886757670        2.3493616021
 H         -9.7515390357       -1.0879756028       -1.3920092997
 H        -12.1028387757       -0.2870353290       -1.5210229819
 H        -12.6879741948        1.9235997383       -0.5940115831
 H        -10.9497432718        3.3270998488        0.4455093428
 H         -8.6217469215        2.5221370157        0.5668960401
 H         -6.3175844826        0.2966642331       -2.9425980338
 H         -4.9410110403        2.0342664739       -4.0782439833
 H         -4.1954644529        4.0137955693       -2.8108946237
 H         -4.8403724617        4.2842695536       -0.4500669155
 H         -6.2156133919        2.5634511694        0.6616252154
 H         -8.8714182734        0.1539256357        2.2485592121
 H         -8.0528172894        0.1339254798        4.5843901972
 H         -5.6335671485       -0.0192296494        5.0384715729
 H         -4.0239915202       -0.1895070487        3.1751724352
 H         -3.7740176120        2.0385844225        1.5419495755
 H         -1.4513431700        2.7199252955        1.4316596734
 H          0.5060048336        3.0605802377        1.6560558657
 H          2.8334273700        3.6749808929        1.4899956554
 H          4.7645762452        0.0888194071        1.4665658444
 H          6.3840324788       -1.7621705451        1.4064564435
 H         10.2556764126        0.2886243029        0.3037661102
 H         12.6973389906       -0.0230267287        0.4355374011
 H         13.7027192476       -2.2445115982        0.2049007164
 H         12.2865332830       -4.2417438529       -0.1427543117
 H         10.1941273177       -5.9902358719       -0.5124896592
 H          7.9711067139       -7.0330785524       -0.8068843840
 H          5.9397494536       -5.6645704888       -0.8242215250
 H          6.0494618936       -3.2217041738       -0.5254011624
 H          8.6533394643        0.3290002283       -1.5470205826
 H          7.0634207492        2.2007442797       -1.4414306820
 H          4.1955301687        2.0895560095       -2.6866948946
 H          4.3118055930        3.9029167693       -4.3577369867
 H          4.9975300146        6.1661371815       -3.7018379067
 H          5.6014493264        6.6661801768       -1.3589524299
 H          6.1821495791        6.6455299822        1.1707668609
 H          6.5559330430        6.1314808816        3.5577780549
 H          6.1427715121        3.8746502340        4.4275599101
 H          5.3449440846        2.0775269797        2.9337884428
 H          3.5949414248        0.2623368865       -0.9845445863
 H          1.2706264533       -0.3788776471       -0.8511322942
 H         -0.4518338150       -1.1728926820       -0.2024269068
 H         -3.3054375346       -0.5406099010       -2.3821559682
 H         -4.5145855421       -0.6893202199       -4.5349002216
 H         -5.8620960439       -2.6843578461       -5.0559487274
 H         -5.9586747285       -4.5628339669       -3.4612400696
 H         -4.6849051792       -4.4386758627       -1.3380169727
 H         -5.8635842092       -2.8335856226        0.2235525321
 H         -7.1106655094       -3.4658231133        2.2478356489
 H         -5.9081554645       -3.9575243073        4.3441396781
 H         -3.4439844467       -3.8426245459        4.4091379608
 H         -2.1900060676       -3.2390087519        2.3531774265
