121
 energy: -183.575373115929 gnorm: 0.000064877571 xtb: 6.7.1 (edcfbbe)
C           -7.78410735569345       -4.64474518954115       -2.50619959941750
C           -6.51524621474038       -4.15521008727850       -1.80780087944054
C           -5.56881676780866       -3.58087427167207       -2.88247880332793
C           -6.79968589960559       -3.07974960948606       -0.77275272617008
C           -7.99993956558756       -2.39451887021857       -0.66044423771337
C           -8.18173946818793       -1.43153619156851        0.31876054890392
C           -7.17388429623835       -1.16369345374612        1.22881703112317
C           -5.97470825123650       -1.84641188289045        1.14432104527157
C           -5.77325469467856       -2.77329169111913        0.12720771948323
N           -4.57276840391836       -3.50767772885264        0.03626040495275
C           -3.32520296656332       -2.91984322900491       -0.02948423719068
C           -2.16294574810761       -3.69274061355413       -0.23853954386604
C           -0.93357546424631       -3.09724327486324       -0.26820865356761
C           -0.77991890137490       -1.70978844170419       -0.10888981227111
C           -1.93890026331903       -0.90747145317735        0.00359869219264
C           -3.18419072153320       -1.53694983112664        0.02537132488551
C           -1.79585331478540        0.52583008075628        0.11842083003520
C           -2.89183804024511        1.39433512152055        0.18012746108031
C           -2.72791080967525        2.75415793454088        0.34042811677080
N           -3.87340640857772        3.59425545697793        0.41435336829454
C           -4.17482299266522        4.41534544199281       -0.65836683166563
C           -3.36526262221725        4.38794328055608       -1.80123520624152
C           -3.62633174509139        5.21057101649055       -2.87531954380014
C           -4.71001218196730        6.07237998641372       -2.83629896149368
C           -5.52992389779907        6.07960004455146       -1.72289962505995
C           -5.29218484995363        5.26106723377612       -0.62671134430087
C           -6.24921895305347        5.28996020872863        0.54785226068452
C           -7.64870248921893        4.88149147951435        0.04812932830271
C           -6.28643124483725        6.71756758980372        1.12635648482787
C           -5.82516370838575        4.33536759277662        1.64567322567390
C           -6.59329977289936        4.23576712201419        2.79832982368715
C           -6.24307700627120        3.40270926851941        3.84480276504684
C           -5.08018826650979        2.65537812216852        3.75633773566350
C           -4.29888494723033        2.73352364327896        2.62411442021113
C           -4.66659707870684        3.55223785889527        1.54837191655994
C           -1.44235975003321        3.30536914758356        0.43742241618500
C           -0.35254538120533        2.48158487053470        0.35052464700706
C           -0.49919548738954        1.09230235471508        0.18845253547888
C            0.66526640179130        0.27068149732749        0.09358553670131
N            1.88175640395955        0.82023991363362        0.15483051563182
C            2.97072061679201        0.05781574340415        0.04609591698351
C            4.25435598750704        0.60561831931340        0.10325104996808
C            5.38273057355768       -0.19696269239907       -0.00943450679005
N            6.67989009836928        0.37991711680336        0.04985596902790
C            7.27806042897584        0.80433812968381       -1.12304170040465
C            6.56860587015410        0.72670993699061       -2.32697387656023
C            7.14003453145142        1.13508547889634       -3.51252047638491
C            8.43273134402685        1.63177483690979       -3.51759004327452
C            9.13503548888429        1.71095952489764       -2.32881840369226
C            8.58582137711284        1.30644215336259       -1.11973383267416
C            9.40755344782958        1.40864268907619        0.14963893652870
C           10.66731376180988        0.53592070414846       -0.00893615870457
C            9.80416054862827        2.88206427526258        0.36547063757508
C            8.63643993081458        0.93206532094614        1.36414299831895
C            9.23458439042470        0.96722597254245        2.61636384770733
C            8.57539068740475        0.54665258962135        3.75709250382329
C            7.27620018174157        0.07738462650101        3.65866283633455
C            6.65729634631439        0.03032459672661        2.42845654839693
C            7.32488185799963        0.44883927749668        1.27174787934632
C            5.22553857253065       -1.56932248821012       -0.18016251664033
Br           6.78018725740302       -2.66822504527145       -0.33515962031854
C            3.97282610644112       -2.15557100761953       -0.24073698117676
C            2.82712904919453       -1.36585660675794       -0.13188849661451
N            1.60597216200703       -1.90486812250014       -0.18528650958904
C            0.52462204346841       -1.13282256968849       -0.07583763681563
C           -4.80274916912206       -4.88556669885631       -0.15137834192965
C           -4.14595793852509       -5.83670902088820        0.62091194173357
C           -4.42596993244652       -7.17930324536554        0.44676101896977
C           -5.38039548203496       -7.56859184640892       -0.47647396481351
C           -6.07063492876604       -6.61676591015293       -1.20915063918886
C           -5.79817053565512       -5.26595864281364       -1.05862169777351
H           -8.48812610098531       -5.06208215152710       -1.78972502842839
H           -8.25981386343738       -3.82329971296632       -3.03578635257030
H           -7.53576619963880       -5.40333015637966       -3.24403113832079
H           -5.32658222139358       -4.35237574642861       -3.61045189708719
H           -4.64051646500833       -3.21638946459396       -2.45098769855920
H           -6.05400833049726       -2.75428865062794       -3.39750399138509
H           -8.81025410987940       -2.60208788243967       -1.33991959056776
H           -9.12050686513414       -0.90152042223738        0.37969692070040
H           -7.32189246752126       -0.43468057452664        2.01186216147087
H           -5.19759872030788       -1.67712682967467        1.87506052706294
H           -2.23972108061727       -4.75595959120087       -0.39769133485224
H           -0.04140563975181       -3.68715860038401       -0.41439123926905
H           -4.07292381208620       -0.93361541424617        0.07771153806840
H           -3.89870738324356        1.01487605844801        0.10593237409289
H           -2.52688623856001        3.71064230642427       -1.84391315979215
H           -2.98474782840853        5.17484996141815       -3.74323617451463
H           -4.92121224378723        6.72569953995995       -3.66915773574752
H           -6.38046961102465        6.74358825479643       -1.71475846177020
H           -7.98730738507413        5.54796547446595       -0.73979395262626
H           -8.37269209474196        4.91470489554593        0.85709006468807
H           -7.61983637242619        3.86769521732293       -0.34755842783062
H           -5.29677144596216        7.00107346587533        1.48041175379289
H           -6.97972709366424        6.77885004633601        1.96013996478818
H           -6.59879378397813        7.43274362756552        0.37103257661965
H           -7.49218436124188        4.82575587865517        2.88880654135318
H           -6.86540747678971        3.34642732130218        4.72504739364235
H           -4.77741830753140        2.01333151455169        4.57020458135843
H           -3.38746787048118        2.15922308991332        2.56911950556019
H           -1.32725967954073        4.37016498933386        0.57356056746932
H            0.65098648811371        2.87404230828191        0.41093828953240
H            4.36454948677927        1.67064131171703        0.23538424798237
H            5.56003683702375        0.34081945923133       -2.32666000229444
H            6.57481265723682        1.06392959552280       -4.42991975278504
H            8.89115883606737        1.95264003909723       -4.44057601786755
H           10.14209951073704        2.09767178904198       -2.35041824679662
H           11.25773343338088        0.86230705077058       -0.86016076176627
H           10.38175873402288       -0.50270384513305       -0.16577753782491
H           11.28860972145948        0.59070594437689        0.88021524975032
H           10.41690474601263        2.98993955077425        1.25558593350043
H           10.36695714072326        3.25864929973908       -0.48356301378158
H            8.91114208402950        3.49306960897860        0.48552941011266
H           10.24605547704703        1.33076243386512        2.71087689866577
H            9.07156481510550        0.58506789443697        4.71484050729591
H            6.74269269210206       -0.25249374941420        4.53775168591010
H            5.64313245023743       -0.33350463444624        2.35561576111098
H            3.86268903618422       -3.22024895976317       -0.37227342541800
H           -3.43370767413259       -5.52004380521644        1.36829367985194
H           -3.90885327034239       -7.91683571276575        1.04240945087119
H           -5.60210719321124       -8.61605392824798       -0.61673195510554
H           -6.82657738529389       -6.94561071642679       -1.90326446339668
