121
 energy: -183.620472506003 gnorm: 0.000062522664 xtb: 6.7.1 (edcfbbe)
C           -7.73762661429624       -4.67774488275729       -2.45827345672143
C           -6.47705649534320       -4.17578329250345       -1.75369440337425
C           -5.51101310342468       -3.63664851104906       -2.82905277497272
C           -6.77263234302410       -3.07138814448897       -0.75227459856183
C           -7.97125626962581       -2.37769315245319       -0.67887064523452
C           -8.16628149774770       -1.39163391807708        0.27436927819192
C           -7.17522548458546       -1.10774114958190        1.19758967896947
C           -5.97764612264952       -1.79756668876389        1.15132262472832
C           -5.76286592036286       -2.74744444708254        0.15947966933579
N           -4.56159484740691       -3.48911290098255        0.10425960902797
C           -3.31679083695271       -2.91563290246177        0.02454865172520
C           -2.16021285658412       -3.69761089937802       -0.16476870670845
C           -0.92678268384282       -3.10686156732640       -0.21032081123814
C           -0.76998397347838       -1.71936551004496       -0.08830453447508
C           -1.92119608410362       -0.90892658377229        0.01109691888494
C           -3.16536546073019       -1.52597665871417        0.05127486708165
C           -1.77753978647341        0.53984980392600        0.09164719425195
C           -2.87747183855933        1.39852690172348        0.14539631718096
C           -2.72429539369644        2.76925544724630        0.26696020811007
N           -3.87232773748761        3.59603758352709        0.34142363333647
C           -4.16121455346721        4.45345901128318       -0.71348854855194
C           -3.34504530431610        4.45783198048809       -1.84914483562068
C           -3.59555377285754        5.31077851064119       -2.90369070837043
C           -4.67852040834112        6.16989662098139       -2.85238435334741
C           -5.50966810351062        6.14018335394617       -1.74806563687704
C           -5.28110361351618        5.29104161251939       -0.67304586123625
C           -6.26048262377541        5.28007663598430        0.48527260795156
C           -7.64688919272943        4.87547644918951       -0.05085222351585
C           -6.31808076346815        6.68994053788506        1.10287008847607
C           -5.84767217364388        4.29673551110655        1.56385066652404
C           -6.63239209596516        4.16979473316577        2.70286272499656
C           -6.29354742966473        3.32068743790100        3.73987146908459
C           -5.12305319347119        2.58839634239008        3.65487381750712
C           -4.32725357806494        2.69285391338866        2.53325090662584
C           -4.68636801055547        3.52248766415654        1.46575326055422
C           -1.44528911723257        3.32775790264673        0.32715296868837
C           -0.34788776196734        2.50462613720380        0.25250045379919
C           -0.49234508135394        1.11761219113643        0.13417137963080
C            0.68531289906348        0.28416455228972        0.05505026078385
N            1.87423056706722        0.85223904787751        0.10277084999165
C            2.95534668623688        0.05892251423975        0.01700342765042
C            4.24397162643848        0.62269451630943        0.08101087870755
C            5.35836427215632       -0.17088008651162       -0.01334105041494
N            6.65779183529849        0.38536968060479        0.05343529198106
C            7.23752659871564        0.89628065930696       -1.10127858501579
C            6.50989054623300        0.90677599998988       -2.29368827402727
C            7.06112422320264        1.40308068487873       -3.45693587501370
C            8.35288340131898        1.89664781385814       -3.44837413304369
C            9.07590475938992        1.88007520663007       -2.26968078650977
C            8.54667964706037        1.38652237855793       -1.08458699903347
C            9.39842488662487        1.38400993354140        0.17137430792992
C           10.64763143660464        0.52001498392005       -0.08315598501328
C            9.80923816583897        2.83341607595520        0.49297560172394
C            8.64990782548565        0.81753815534044        1.36340540486654
C            9.27753843237148        0.75167224446509        2.60011331635196
C            8.64138015391218        0.25419356307869        3.72279712310816
C            7.33435488033477       -0.18576771372578        3.62155407688612
C            6.68626045792796       -0.13112445623055        2.40495805277467
C            7.33386414924628        0.35674770173578        1.26717938968655
C            5.19844700589881       -1.56834688639603       -0.18142422009621
Br           6.76531620968328       -2.64075359155028       -0.33697681714139
C            3.96701056801201       -2.15476960041842       -0.24003044887633
C            2.81254339106239       -1.35105712694305       -0.13563667048469
N            1.60114452618766       -1.92393020232171       -0.17713414856959
C            0.54052690384304       -1.13724661737880       -0.07715464018935
C           -4.79854494831900       -4.87297683403105       -0.04875522884506
C           -4.15998334290860       -5.80472473863665        0.76020699321507
C           -4.44531287046073       -7.15019298545713        0.61783232220564
C           -5.38565882487471       -7.55847158872087       -0.31156622968137
C           -6.05646297306072       -6.62363522519221       -1.08294409241045
C           -5.77880745215265       -5.27042606750240       -0.96369563975687
H           -8.45548404036861       -5.07110734892048       -1.74196910315981
H           -8.20025150563922       -3.86918092259088       -3.01835488333948
H           -7.48206506033738       -5.45795808672897       -3.17058350084706
H           -5.26259733585495       -4.42983290521831       -3.53109483878372
H           -4.58706983684144       -3.26476830869608       -2.39473364194594
H           -5.98382989492755       -2.82263287960088       -3.37462294673426
H           -8.77007382905360       -2.59738211142352       -1.36794801053919
H           -9.10310225534962       -0.85566731134937        0.30528026072728
H           -7.33500721208584       -0.36032037901823        1.96035720304438
H           -5.21376597165747       -1.61349897577436        1.89234232269719
H           -2.24213007502155       -4.76440899329486       -0.29341636762529
H           -0.03743937548504       -3.70325862410105       -0.34098007675023
H           -4.05290867776713       -0.92035469592397        0.09214683463805
H           -3.88337440465480        1.01352095983338        0.09697725761757
H           -2.50701978171552        3.78085428647694       -1.90905421248400
H           -2.94499903931977        5.29762129032828       -3.76601410117908
H           -4.88259474849162        6.84726784547891       -3.66795587915911
H           -6.36395391227810        6.79972718718070       -1.73008750467562
H           -7.98047828290622        5.56436199520856       -0.82182547525114
H           -8.38488518918361        4.87356402391989        0.74645021328935
H           -7.60071426055554        3.87582982156729       -0.47995404027781
H           -5.33543804355819        6.97124504120948        1.47812326426831
H           -7.02268626115122        6.72364552647821        1.92901475479870
H           -6.62597568777231        7.42450968385092        0.36412425419386
H           -7.53656959365854        4.75275951630484        2.79041418295728
H           -6.92880854939931        3.24400779256354        4.60957555763224
H           -4.82286188501173        1.93662121155060        4.46244285780994
H           -3.40782476101749        2.12991572312248        2.48844656080126
H           -1.33239873682360        4.39654307595134        0.42904677989709
H            0.65257728140725        2.90568771843654        0.29200261552317
H            4.34171468340498        1.69045645219821        0.20460438905694
H            5.50141657891306        0.51984490323929       -2.30975781069346
H            6.47843789929094        1.40032488002087       -4.36643959407252
H            8.79617596159605        2.28762230096300       -4.35171092884536
H           10.08494518552425        2.26272615534070       -2.27979939030706
H           11.21943689575584        0.90448579067943       -0.92303964375098
H           10.35211334780556       -0.50331094308342       -0.30806352341469
H           11.29222359550858        0.50610173911841        0.79115741601129
H           10.43572662069959        2.87027444161002        1.37957415905214
H           10.36274115059340        3.27128137615191       -0.33272694764622
H            8.92265595986962        3.43930194021206        0.67298260950583
H           10.29578085478418        1.09612765161040        2.69639497592422
H            9.16163181670196        0.21387328338892        4.66777668879906
H            6.81443267938246       -0.57190519831217        4.48604309391950
H            5.66282169476540       -0.47101093162161        2.33558014532098
H            3.84872638460021       -3.21960514339955       -0.36527239471687
H           -3.45685844738607       -5.47148602946552        1.50899467251367
H           -3.94290394505364       -7.87438953826230        1.24154708834155
H           -5.61156564422177       -8.60799176708284       -0.42723874866751
H           -6.80165222611198       -6.96710354706744       -1.78147020347322
