  121
       -183.55046217
 C         -7.8326858340       -4.5844286604       -2.1925795996
 C         -6.5344223814       -4.0979501447       -1.5502435569
 C         -5.6001840913       -3.5985642494       -2.6712246968
 C         -6.7625454935       -2.9658502162       -0.5640686001
 C         -7.9359719121       -2.2345603858       -0.4620955138
 C         -8.0560378939       -1.2059920532        0.4578003334
 C         -7.0147499172       -0.9183378319        1.3226322102
 C         -5.8455300839       -1.6518624656        1.2530690293
 C         -5.7035945976       -2.6456529727        0.2904694470
 N         -4.5265584349       -3.4172416608        0.2061512665
 C         -3.2751518050       -2.8599413336        0.0703390294
 C         -2.1237123299       -3.6482823303       -0.1115791356
 C         -0.8885645746       -3.0593560983       -0.1866078963
 C         -0.7305505234       -1.6708537747       -0.0996281077
 C         -1.8807852178       -0.8601834487       -0.0298723636
 C         -3.1249289047       -1.4732868911        0.0356703078
 C         -1.7450704980        0.5876045330        0.0284445134
 C         -2.8515337646        1.4360475967        0.0256370683
 C         -2.7203823844        2.8030011516        0.2003229790
 N         -3.8851188502        3.6024575939        0.2481493693
 C         -4.1057417583        4.5510460877       -0.7434676288
 C         -3.1754902436        4.7123805649       -1.7751761498
 C         -3.3540236044        5.6665006344       -2.7544759720
 C         -4.4756885734        6.4753057960       -2.7330557176
 C         -5.4208705495        6.2863397494       -1.7428766663
 C         -5.2684762807        5.3285620331       -0.7490086685
 C         -6.3765881059        5.1364348965        0.2671572181
 C         -7.6678509313        4.7646609405       -0.4846494129
 C         -6.5714531101        6.4492164426        1.0471953968
 C         -6.0497882897        4.0363971838        1.2568405013
 C         -6.9733370318        3.7189113959        2.2440123283
 C         -6.7206713347        2.7618683042        3.2082141214
 C         -5.4928915451        2.1249390896        3.2152744689
 C         -4.5583481726        2.4224626902        2.2466458675
 C         -4.8318055020        3.3486738022        1.2336989015
 C         -1.4501627866        3.3657139668        0.3510425330
 C         -0.3419429428        2.5544909787        0.2944607607
 C         -0.4673478158        1.1705650635        0.1330395004
 C          0.7143101242        0.3407680402        0.0726035467
 N          1.8993215483        0.9128611753        0.1474168003
 C          2.9832434061        0.1262548386        0.0621432284
 C          4.2687194369        0.6955676184        0.1449461257
 C          5.3872068984       -0.0894414219        0.0372562850
 N          6.6837813330        0.4654695538        0.1042492289
 C          7.2334518231        1.0465774934       -1.0294333886
 C          6.4492254927        1.2153754189       -2.1731084555
 C          6.9728242294        1.7882342817       -3.3132146061
 C          8.2934964997        2.1971518816       -3.3332484067
 C          9.0739256027        2.0180214528       -2.2061425687
 C          8.5722215583        1.4484359236       -1.0441535992
 C          9.4903032732        1.2495049875        0.1463058288
 C         10.6066267991        0.2717783152       -0.2623465465
 C         10.0880125717        2.6092780365        0.5488551604
 C          8.7580880353        0.6656193391        1.3380793478
 C          9.4365438795        0.4642876380        2.5317495786
 C          8.8161965136       -0.0658487449        3.6480586833
 C          7.4753844286       -0.3981491311        3.5847822037
 C          6.7781051572       -0.2108716624        2.4098152641
 C          7.4101996375        0.3046976506        1.2754151166
 C          5.2356529173       -1.4849822670       -0.1591107595
 Br         6.8110610030       -2.5368250749       -0.3523032490
 C          4.0088739120       -2.0777831974       -0.2309112562
 C          2.8494521882       -1.2823114235       -0.1163654991
 N          1.6420224326       -1.8595516382       -0.1768312641
 C          0.5789618795       -1.0798308042       -0.0793843721
 C         -4.7920259925       -4.7955389390        0.0861084711
 C         -4.1290956857       -5.7277377089        0.8748874641
 C         -4.4428880439       -7.0696059685        0.7670081400
 C         -5.4371159697       -7.4753231822       -0.1050106886
 C         -6.1314289046       -6.5401649421       -0.8544978506
 C         -5.8236583253       -5.1914867349       -0.7717816172
 H         -8.5294618743       -4.9460519496       -1.4396837065
 H         -8.3002721450       -3.7767297969       -2.7501125666
 H         -7.6251278880       -5.3847654074       -2.8982727276
 H         -5.3929823297       -4.4090408192       -3.3668536604
 H         -4.6554016440       -3.2378628869       -2.2753368399
 H         -6.0770320026       -2.7852722637       -3.2145679327
 H         -8.7714802823       -2.4538585075       -1.1066242472
 H         -8.9720488265       -0.6372634654        0.5075371986
 H         -7.1107680030       -0.1301945092        2.0541629881
 H         -5.0436777657       -1.4639131598        1.9510595017
 H         -2.2088031488       -4.7182202107       -0.2079921553
 H         -0.0011606870       -3.6606918167       -0.3043350603
 H         -4.0103200427       -0.8656203999        0.0620445687
 H         -3.8482298846        1.0455087442       -0.0992450414
 H         -2.3059671898        4.0761194186       -1.8170524372
 H         -2.6158189217        5.7726767201       -3.5350850003
 H         -4.6224704840        7.2332313224       -3.4869763293
 H         -6.3054376106        6.9047353358       -1.7507724402
 H         -7.9394707845        5.5383160194       -1.1968030880
 H         -8.4960762785        4.6342702815        0.2058600984
 H         -7.5234080496        3.8329288596       -1.0286696254
 H         -5.6532990428        6.7069210983        1.5718603759
 H         -7.3680634758        6.3509936485        1.7793825824
 H         -6.8234357393        7.2652652449        0.3758686232
 H         -7.9208676314        4.2349976810        2.2679403502
 H         -7.4649505689        2.5327053511        3.9555585590
 H         -5.2552909870        1.3990727494        3.9790511763
 H         -3.5974867464        1.9349418044        2.2827114734
 H         -1.3515441567        4.4295578723        0.5063146375
 H          0.6517088120        2.9627567730        0.3894305722
 H          4.3596805465        1.7612444442        0.2868325267
 H          5.4199666347        0.8912364687       -2.1707870589
 H          6.3468979894        1.9095230723       -4.1845976302
 H          8.7161124739        2.6440555341       -4.2199143799
 H         10.1073693788        2.3266992795       -2.2414632030
 H         11.1612933022        0.6526709805       -1.1152944316
 H         10.1722837149       -0.6883360221       -0.5340293566
 H         11.3007209289        0.1146489944        0.5584911372
 H         10.7658179827        2.5021195258        1.3905187923
 H         10.6407532928        3.0508003444       -0.2750694393
 H          9.2910579176        3.2935347832        0.8342499813
 H         10.4827592915        0.7206350561        2.5968385364
 H          9.3752424030       -0.2147689459        4.5589681048
 H          6.9686982388       -0.8036900916        4.4476820437
 H          5.7296203134       -0.4659744365        2.3694524801
 H          3.8966886387       -3.1397549441       -0.3809685506
 H         -3.3867050349       -5.3960747774        1.5850993490
 H         -3.9210479248       -7.7930356335        1.3746521146
 H         -5.6866066559       -8.5217234889       -0.1924639227
 H         -6.9179974874       -6.8802638040       -1.5081622892
