121
 energy: -183.618795787535 gnorm: 0.000040697477 xtb: 6.7.1 (edcfbbe)
C           -8.26555652421049       -3.69071361006617       -0.58370265407441
C           -6.97064796586851       -4.43295339489620       -0.20236504052126
C           -7.28771555709058       -5.88581664917592        0.19951144664442
C           -6.04983587774641       -4.45030257784510       -1.40733402087104
C           -6.48390334222972       -5.03661445036178       -2.58926251028932
C           -5.70428061121849       -5.05549436071093       -3.73080178663004
C           -4.45925192175373       -4.45290230488915       -3.70750285328005
C           -4.00280186384035       -3.86584721928639       -2.54598399505635
C           -4.77341477158627       -3.87960826249486       -1.37900593755778
N           -4.27684818019255       -3.29118517605825       -0.22163131753831
C           -2.93543962265476       -2.83775606290648       -0.20925603057629
C           -1.88984713835666       -3.76327476258560       -0.27119536869115
C           -0.59182419784478       -3.31676053110764       -0.25172467428765
C           -0.30245401151898       -1.95012544553285       -0.16560377297445
C           -1.34712603372283       -1.00489358137327       -0.10118029116227
C           -2.66003223403807       -1.48246163222465       -0.13217949293808
C           -1.03616865151136        0.41603486954125       -0.00984876271082
C           -2.03061367184439        1.39550749931059        0.05693838807948
C           -1.71577642053929        2.74164016705488        0.13933137474559
N           -2.74885242638833        3.70970412493807        0.19197022914131
C           -3.49209289222453        3.97714239082168       -0.95191599368009
C           -3.23637326675992        3.26965324060310       -2.13077338591567
C           -3.96273650204392        3.50971092562864       -3.27848606580767
C           -4.95738795423491        4.47090897850237       -3.27532798453944
C           -5.19341753822966        5.19167484306993       -2.11945474088519
C           -4.47596478336602        4.97207415205036       -0.95064952602688
C           -4.76001077308281        5.83257084381410        0.26621020903541
C           -6.23564421803105        5.65331401848912        0.67028410122818
C           -4.48210777998718        7.30285861899344       -0.09982344806383
C           -3.88663772998895        5.44852496237016        1.44541107044590
C           -4.02980283171506        6.12574029260612        2.64952807346086
C           -3.28786673135481        5.79994061051315        3.76974576619610
C           -2.38711146404990        4.75222309226464        3.70121068564088
C           -2.22280134282132        4.06513203903243        2.51668366244480
C           -2.94621275345106        4.41585916322544        1.37242605803100
C           -0.37932880324565        3.14930926685062        0.16739912980749
C            0.61506429416179        2.20414040213859        0.11027069664939
C            0.30810565290008        0.84154926844239        0.02092953654886
C            1.38020541061945       -0.12363734608844       -0.03889540301529
N            2.62989803868187        0.30140156766687        0.00399924126558
C            3.60900942085851       -0.61246430519374       -0.05552790960644
C            4.95695202364742       -0.20126369519036       -0.00707591159868
C            5.96823558795845       -1.12330716967822       -0.07066284449338
N            7.32420680964741       -0.72360063015809       -0.01704114931860
C            7.99964794876703       -0.47510572545151       -1.20601054380443
C            7.31063679056250       -0.55056679928580       -2.41870120334527
C            7.95463833862096       -0.31406070902150       -3.61571930495447
C            9.30042580944997        0.00376748613504       -3.61952876035825
C            9.98163317280587        0.08203654645379       -2.41847644299663
C            9.35930016040751       -0.15169929359632       -1.19958116441708
C           10.16244330649615       -0.04917875427155        0.08379457852415
C           11.31530178746875       -1.06878703208680        0.02682279902625
C           10.72138585378681        1.38153153311610        0.20130870491719
C            9.31519676925888       -0.34087446744704        1.30849692800144
C            9.89391664602263       -0.29402273279024        2.56975721022073
C            9.17277896991549       -0.55431646428823        3.72078698912601
C            7.83009471151651       -0.86990293827068        3.62186863172350
C            7.22859946650364       -0.92103250054072        2.38127961645418
C            7.95747880357487       -0.66010334348639        1.21861380935379
C            5.64634622683328       -2.49994021739124       -0.18987387003237
Br           7.07807529160127       -3.75110459686420       -0.28060690429544
C            4.35484997470747       -2.93929453885752       -0.23791365039069
C            3.30387610744094       -2.00111212197737       -0.16802525561501
N            2.03245834741361       -2.42508851622611       -0.20563151607747
C            1.07467876797271       -1.51825894186775       -0.13886469332917
C           -5.03653931981518       -3.21230793801024        0.94051846685342
C           -4.49181674093734       -2.63846289167728        2.09362818537745
C           -5.22699763058281       -2.53829809602902        3.25640786927363
C           -6.52191197660046       -3.02270192405101        3.29630054194006
C           -7.05224432834705       -3.61922692559971        2.16762708658298
C           -6.33525478227522       -3.73146330653029        0.98335729349988
H           -8.03629015287040       -2.66302180100857       -0.86075128441189
H           -8.75540051075989       -4.17140803134688       -1.42571178878730
H           -8.96273161077802       -3.67401550079621        0.24920777938170
H           -7.95155403093170       -5.91478865186305        1.05909482540608
H           -6.36842598780207       -6.40875542342457        0.45841907821222
H           -7.76584610780484       -6.41760260393880       -0.61844933850901
H           -7.46093893541719       -5.49389300073288       -2.62619283838507
H           -6.07116628932535       -5.52498589696081       -4.63114050824892
H           -3.84168787679694       -4.43400893814306       -4.59352912131771
H           -3.03650551073272       -3.38539457676668       -2.54331133649460
H           -2.11432070628795       -4.81729185753165       -0.33246666269596
H            0.23604470768374       -4.00653747729945       -0.29312943948901
H           -3.49665509632351       -0.80360258336461       -0.09535565591815
H           -3.07423777508122        1.12569750001302        0.04514156208195
H           -2.45221036250258        2.52887992787978       -2.15207529087036
H           -3.74545036785847        2.94676824877880       -4.17444829798148
H           -5.53566224315992        4.66719533486986       -4.16564103419403
H           -5.95907235870393        5.95226008690997       -2.13547465797516
H           -6.48090761543397        6.27185003334912        1.52894172268281
H           -6.42514402968987        4.61327275195802        0.93083889943811
H           -6.89744698225315        5.92853868903395       -0.14602988241732
H           -3.44073584994761        7.42141229202195       -0.39500292263952
H           -4.67527377911833        7.95563049652536        0.74686932806158
H           -5.11083737876609        7.62237010720753       -0.92619855092619
H           -4.74187256861154        6.93372057048119        2.72170874959719
H           -3.42162250736343        6.35070808338141        4.68865300900335
H           -1.81215095814702        4.46433084656877        4.56918546395500
H           -1.52755538054689        3.24065132316761        2.47824015834088
H           -0.14450011203135        4.20085376917046        0.23298035270133
H            1.65560253089898        2.48717031089558        0.12539918323386
H            5.17886774709709        0.85105476308856        0.08188717403156
H            6.25863330490440       -0.79691918780807       -2.42392250570364
H            7.40167125282436       -0.37992813072582       -4.54120315078118
H            9.81688968637791        0.18964367297415       -4.54901610170100
H           11.03134824076922        0.33172125109052       -2.43787784391739
H           11.95879903577684       -0.87778843497614       -0.82725816101014
H           10.91584308358924       -2.07747982574612       -0.06286577829762
H           11.92089563056444       -1.01903917996137        0.92726911946018
H           11.32214593204555        1.48925347099992        1.09992427947267
H           11.34305047639142        1.62543234664803       -0.65548494840897
H            9.90260906384975        2.09780889586708        0.24699505913511
H           10.94098778871738       -0.04980244885962        2.66285262108575
H            9.65626739417398       -0.51173786089536        4.68505869160027
H            7.24636067209716       -1.07810550588193        4.50651472628003
H            6.17902086305977       -1.16783504228540        2.31255104636932
H            4.11291741757661       -3.98671840962298       -0.32584672197273
H           -3.47636792615325       -2.27420804534310        2.08351906080988
H           -4.78258800268418       -2.08592748426769        4.13092526376597
H           -7.10940342990942       -2.94918793554998        4.19908642538856
H           -8.05617770687895       -4.01229889797267        2.21784704506113
