  48
  -71.3337693109000       0.471573235487196      !
 C          0.6492056897       -2.5295705503       -1.4351973154
 C          0.2618145530       -1.9683838019       -0.0425528559
 C          0.8723794010       -2.7912669308        1.1234053352
 C         -1.2389931452       -2.1307439755        0.0264219754
 C         -1.7860178442       -3.4050111576        0.0591958634
 C         -3.1535878167       -3.6111216156        0.0749364725
 C         -4.0122346800       -2.5168019481        0.0489032866
 C         -3.5016487926       -1.2426688558        0.0202315441
 C         -2.1103474473       -1.0280188987        0.0161404508
 N         -1.6043843863        0.2441642096        0.0083209047
 C         -2.5278928575        1.3319106476       -0.0065419187
 C         -2.9140724439        1.8906549555       -1.2173536603
 C         -3.8174052249        2.9391138302       -1.2290661035
 C         -4.3330199102        3.4265930222       -0.0394497161
 C         -3.9458766406        2.8662068984        1.1667359578
 C         -3.0430300982        1.8176868465        1.1881654856
 C         -0.2608887508        0.5314016278        0.0320402547
 C          0.1486136458        1.8639459782        0.0771915803
 C          1.4764753739        2.1947620107        0.0912497585
 C          2.4847439186        1.1862923320        0.0515310204
 C          3.8182600701        1.5426992878        0.0524671236
 C          4.8469874300        0.5519514906        0.0099074623
 C          6.1905174695        0.9185388315        0.0127095846
 N          7.3064616445        1.2193742365        0.0176992430
 C          4.4697707314       -0.7885293903       -0.0345624645
 C          3.1440024519       -1.1551258429       -0.0337649989
 C          2.0813058477       -0.1921012667        0.0104441046
 C          0.7240226843       -0.5312535844        0.0152622409
 H          0.4358864553       -3.5936085688       -1.4909719878
 H          1.6975138779       -2.3639860540       -1.6578732048
 H          0.0611828067       -2.0241780055       -2.1998946547
 H          0.0972378586       -3.0451842831        1.8436369799
 H          1.6303199075       -2.2216394148        1.6513700684
 H          1.3162255462       -3.7167151816        0.7652510440
 H         -1.1291366226       -4.2610394071        0.0762993852
 H         -3.5493488171       -4.6140015606        0.1028150558
 H         -5.0809898752       -2.6656246788        0.0519928517
 H         -4.1701546673       -0.3962604272        0.0001994299
 H         -2.5031185307        1.5021894999       -2.1373747242
 H         -4.1180364219        3.3738610443       -2.1699678419
 H         -5.0373690875        4.2441414501       -0.0522335151
 H         -4.3459507054        3.2448599873        2.0949067821
 H         -2.7317423043        1.3717859578        2.1212730698
 H         -0.5909934317        2.6487465005        0.1019363749
 H          1.7815336871        3.2283037076        0.1278464863
 H          4.0984403873        2.5842510433        0.0850297826
 H          5.2353204123       -1.5512907323       -0.0688295863
 H          2.9286402613       -2.2059099126       -0.0651771468
  48
  -71.3334508088000       0.336647751275454      !
 C          0.8177313420       -2.7300668799       -1.2355336712
 C          0.2622845800       -1.9705326847        0.0003905583
 C          0.7194894499       -2.6030375631        1.3395981696
 C         -1.2403985148       -2.1313661124       -0.0150038700
 C         -1.7879620093       -3.4053008332       -0.0573315934
 C         -3.1554425592       -3.6116792304       -0.0667412603
 C         -4.0139528994       -2.5172681762       -0.0403449319
 C         -3.5029682974       -1.2435567534       -0.0032687791
 C         -2.1116913888       -1.0291227244        0.0178764315
 N         -1.6061730977        0.2430136637        0.0533150914
 C         -2.5275069398        1.3320454508        0.0253726122
 C         -2.8508295825        1.9238178304       -1.1886131067
 C         -3.7513329787        2.9737808687       -1.2192164685
 C         -4.3270175609        3.4308933964       -0.0448577737
 C         -4.0024502416        2.8382457325        1.1642080269
 C         -3.1026033932        1.7873476584        1.2045616152
 C         -0.2624665114        0.5295974727        0.0675032184
 C          0.1476047518        1.8606751776        0.1437316380
 C          1.4751999906        2.1924493336        0.1375070211
 C          2.4826732695        1.1863786727        0.0470926044
 C          3.8159621210        1.5431957968        0.0366582003
 C          4.8440765469        0.5539678308       -0.0419262118
 C          6.1873481803        0.9212397355       -0.0574385774
 N          7.3029746781        1.2232097235       -0.0707284832
 C          4.4664672874       -0.7858708729       -0.1026431243
 C          3.1408212144       -1.1528596811       -0.0919367534
 C          2.0788696266       -0.1910178188       -0.0181945200
 C          0.7220301841       -0.5313198556       -0.0002861560
 H          0.0036347211       -2.9940093398       -1.9070569048
 H          1.3220514269       -3.6473752152       -0.9436014869
 H          1.5120796776       -2.1115650904       -1.7952855940
 H          0.5266260885       -3.6722247071        1.3449485560
 H          0.1599905224       -2.1517664735        2.1575171653
 H          1.7745743150       -2.4315176004        1.5225995240
 H         -1.1312893940       -4.2610425834       -0.0917258319
 H         -3.5511324021       -4.6144525792       -0.0988529066
 H         -5.0827603584       -2.6654396488       -0.0521896806
 H         -4.1714508128       -0.3970252400        0.0095974937
 H         -2.3924566178        1.5585061246       -2.0956831352
 H         -4.0023416845        3.4341696450       -2.1625644654
 H         -5.0287627594        4.2503190601       -0.0723415700
 H         -4.4497329598        3.1930918946        2.0801673714
 H         -2.8415446432        1.3162008483        2.1406415709
 H         -0.5916062058        2.6433064290        0.2116300882
 H          1.7806917668        3.2245009872        0.2019346520
 H          4.0964888173        2.5837924110        0.0909101869
 H          5.2313184320       -1.5476372011       -0.1629471200
 H          2.9242423452       -2.2021955822       -0.1495772214
  48
  -71.3325729136000       0.132960615892993      !
 C          0.4548133630       -2.3648122281       -1.5947509506
 C          0.2410233583       -1.9702401009       -0.1098912615
 C          0.9818534672       -2.9164645299        0.8686544112
 C         -1.2457113570       -2.1485549690        0.1007493501
 C         -1.7830329599       -3.4272385911        0.1321762953
 C         -3.1468279061       -3.6425081472        0.2108131314
 C         -4.0126527610       -2.5542882372        0.2267851860
 C         -3.5116924015       -1.2758490328        0.1916154864
 C         -2.1238714493       -1.0516079769        0.1548313022
 N         -1.6171240423        0.2222550519        0.1657732767
 C         -2.5045575644        1.3232618293        0.0011814372
 C         -2.5523450664        1.9607578909       -1.2329011323
 C         -3.4114621675        3.0269883980       -1.4228615015
 C         -4.2203456656        3.4614846806       -0.3844836065
 C         -4.1670737289        2.8290681521        0.8467022961
 C         -3.3114265131        1.7595856297        1.0456953814
 C         -0.2730563956        0.4984041668        0.2539163756
 C          0.1331295359        1.8065590149        0.5163460161
 C          1.4601375139        2.1383538388        0.5456893956
 C          2.4644275995        1.1668228441        0.2541973092
 C          3.7946850319        1.5341864961        0.2326221846
 C          4.8183211594        0.5826555004       -0.0616792085
 C          6.1575084556        0.9647146358       -0.0923724341
 N          7.2694341872        1.2780637337       -0.1173889131
 C          4.4413659082       -0.7327192071       -0.3254565661
 C          3.1197186757       -1.1125504614       -0.2967773353
 C          2.0629033936       -0.1896633656        0.0006798408
 C          0.7117252622       -0.5461409427        0.0653453320
 H          1.4778876144       -2.1999427550       -1.9137733807
 H         -0.1934447795       -1.7564171112       -2.2238729103
 H          0.1951752850       -3.4088405971       -1.7499633665
 H          1.3115679804       -3.8232236652        0.3678297818
 H          0.3186747142       -3.1979722988        1.6838538151
 H          1.8452102679       -2.4299827650        1.3096265490
 H         -1.1225250522       -4.2792875513        0.0879070527
 H         -3.5347614433       -4.6484206841        0.2417145626
 H         -5.0798126811       -2.7100871772        0.2637035557
 H         -4.1877396237       -0.4355719398        0.1935791900
 H         -1.9131139807        1.6149389914       -2.0319668963
 H         -3.4485818475        3.5178949639       -2.3833154956
 H         -4.8896151219        4.2944423263       -0.5350709676
 H         -4.7921529264        3.1695160750        1.6582110983
 H         -3.2571468838        1.2645920312        2.0042502249
 H         -0.6098658024        2.5648168202        0.7097550334
 H          1.7676828201        3.1466573873        0.7720755534
 H          4.0758545471        2.5554726317        0.4387147228
 H          5.2031758038       -1.4633769672       -0.5592909533
 H          2.9014648662       -2.1404380269       -0.5176152032
  48
  -71.3318021687000       5.881839734435658E-002 !
 C          0.6467688787       -2.6134882554       -1.4249513461
 C          0.2553625733       -1.9847429386       -0.0594023374
 C          0.8613397120       -2.7636353035        1.1336443482
 C         -1.2469755852       -2.1379585333        0.0501761950
 C         -1.8002926532       -3.4092026054        0.1161603211
 C         -3.1676943015       -3.6117020113        0.1511812054
 C         -4.0241843111       -2.5172941751        0.0938481308
 C         -3.5089944933       -1.2462088084        0.0375688272
 C         -2.1171929136       -1.0347889538        0.0456634912
 N         -1.6068768250        0.2357389342        0.0457976766
 C         -2.5177057026        1.3307282447       -0.0132992737
 C         -2.7209900730        1.9875385555       -1.2198488824
 C         -3.6118181720        3.0442735049       -1.2821916231
 C         -4.2974760105        3.4449725262       -0.1467955248
 C         -4.0918971245        2.7887587071        1.0556538765
 C         -3.2029402312        1.7309202207        1.1276312122
 C         -0.2622610465        0.5131501818        0.1064101613
 C          0.1434873723        1.8378282911        0.2692635617
 C          1.4691276484        2.1729926662        0.2946813094
 C          2.4771515690        1.1788955709        0.1212533007
 C          3.8084765453        1.5430335961        0.1332848262
 C          4.8424466165        0.5724389482       -0.0364329415
 C          6.1836568298        0.9469553587       -0.0222019577
 N          7.2971896214        1.2547830780       -0.0076148244
 C          4.4697925429       -0.7565094031       -0.2256757198
 C          3.1458693812       -1.1288678664       -0.2355831088
 C          2.0773332280       -0.1921121836       -0.0464804515
 C          0.7233068302       -0.5457015734       -0.0026279769
 H          0.6699831841       -1.8450313695       -2.1943753483
 H         -0.0828058248       -3.3635663476       -1.7193211324
 H          1.6176631128       -3.0946241353       -1.3948692442
 H          0.8724970173       -3.8312677054        0.9335422571
 H          0.2615147344       -2.5865501854        2.0246810708
 H          1.8739959125       -2.4390632081        1.3461642930
 H         -1.1499539979       -4.2700023394        0.1343454238
 H         -3.5646192213       -4.6129586629        0.2075609411
 H         -5.0933072138       -2.6632650618        0.0937890963
 H         -4.1755186279       -0.3996202252       -0.0106711466
 H         -2.1784160390        1.6669667657       -2.0968689768
 H         -3.7704771667        3.5536082418       -2.2203568404
 H         -4.9915608800        4.2696316865       -0.1991008334
 H         -4.6231070744        3.1002911836        1.9421174286
 H         -3.0323045842        1.2119109193        2.0593209705
 H         -0.5992623168        2.6113210909        0.3857544743
 H          1.7723834225        3.1979666172        0.4357118494
 H          4.0826319995        2.5769784753        0.2757022896
 H          5.2364991572       -1.5046369316       -0.3718544570
 H          2.9366366892       -2.1654789938       -0.4112743652
