  86
       -123.69615818
 C          4.3481970844        5.2041389527       -0.0239983878
 C          3.5541392873        3.9334475243       -0.0440550765
 C          3.7388495962        2.9734449129        0.9413497187
 C          3.0083503815        1.8017034706        0.9511505062
 C          2.0654897837        1.5564549120       -0.0420024672
 C          1.2477457104        0.3327235693       -0.0342368622
 C          1.8491869988       -0.9201815676       -0.0075253263
 C          3.3219094712       -1.0160453738        0.0798731648
 C          4.1237512766       -0.4616805139       -0.9125046678
 C          5.5007706280       -0.5496120540       -0.8317985883
 C          6.0958395576       -1.1881984290        0.2430358463
 C          5.3052178262       -1.7378195279        1.2380823033
 C          3.9280192787       -1.6541705443        1.1571424414
 C          1.0791503707       -2.0907717534       -0.0789045588
 C          1.7631938746       -3.3840579984        0.0345345327
 C          2.8105331755       -3.7384159148       -0.8209184369
 C          3.4759362059       -4.9374321372       -0.6587744856
 C          3.1193344774       -5.8048553707        0.3621840507
 C          2.0825616853       -5.4647745713        1.2187983351
 C          1.4103064997       -4.2707982009        1.0587189921
 C         -0.3390621752       -1.9957359653       -0.1846533017
 C         -1.1754385278       -3.0637131978       -0.5885066002
 N         -0.6887590982       -4.2889658121       -0.9638253664
 C         -2.5804773815       -2.8860047709       -0.6852964809
 C         -3.2058527470       -1.7328695664       -0.2889232701
 C         -4.6488559526       -1.5611600904       -0.2957079778
 C         -5.4849220629       -2.4142300315       -1.0087085065
 C         -6.8653827294       -2.2688223584       -0.9857418317
 C         -7.4360306636       -1.2533899617       -0.2379267037
 C         -6.6326403266       -0.3769205589        0.4622748823
 C         -5.2303917885       -0.4952842026        0.4426034528
 C         -4.3726783555        0.4103398294        1.1336354409
 N         -4.8720437625        1.4006253160        1.9461470501
 C         -2.9808529960        0.3052738411        0.9989797362
 C         -2.3856561581       -0.6685500972        0.2309053950
 C         -0.9491326222       -0.7203271929        0.0135717559
 C         -0.1690892619        0.4318025411       -0.0001244406
 C         -0.7752654827        1.7734730408       -0.0551704425
 C         -1.6764500275        2.0915126406       -1.0680046995
 C         -2.1927661660        3.3676708139       -1.1646796432
 C         -1.8252078517        4.3667722352       -0.2717698212
 C         -2.3835944246        5.7507959862       -0.4102970191
 C         -0.9212223435        4.0585837133        0.7485957284
 C         -0.4839064377        5.1078448745        1.7255920003
 C         -0.4161001326        2.7724878864        0.8456701065
 C          1.8904259997        2.5138717468       -1.0374735963
 C          2.6129770932        3.6942769148       -1.0496851127
 C          2.3743199322        4.7066774009       -2.1288857024
 H          4.9312807909        5.3086300854       -0.9387606720
 H          3.6889281203        6.0692410042        0.0473424543
 H          5.0294434485        5.2184135484        0.8231348083
 H          4.4642269129        3.1515251998        1.7233876823
 H          3.1552336689        1.0822591273        1.7428674475
 H          3.6609374727        0.0342973975       -1.7533807186
 H          6.1131120045       -0.1185643532       -1.6108680427
 H          7.1720791893       -1.2564083495        0.3057041540
 H          5.7641624367       -2.2341485827        2.0811726309
 H          3.3137410942       -2.0793306839        1.9376113600
 H          3.0899214786       -3.0707162081       -1.6223304198
 H          4.2814343751       -5.1973157517       -1.3306124268
 H          3.6478091176       -6.7374773509        0.4917546335
 H          1.8058436658       -6.1337063708        2.0210322361
 H          0.6083750982       -4.0016028853        1.7304958583
 H          0.2991138518       -4.3719583372       -1.1391975507
 H         -1.3046250169       -4.8779651040       -1.4989340157
 H         -3.1508088446       -3.7295836307       -1.0431188418
 H         -5.0605279407       -3.2036965114       -1.6089825201
 H         -7.4876296910       -2.9481905443       -1.5486861366
 H         -8.5099674023       -1.1406841568       -0.2055187380
 H         -7.1032063358        0.4073710530        1.0368088271
 H         -4.2265753581        2.1310894328        2.2007233139
 H         -5.8226768407        1.6980335944        1.8048888849
 H         -2.3726198326        1.0320019713        1.5134820250
 H         -1.9629825658        1.3339860607       -1.7831951357
 H         -2.8880130634        3.5997841519       -1.9599253994
 H         -2.9023445325        6.0538506814        0.4992368413
 H         -3.0833331193        5.8018082772       -1.2408856923
 H         -1.5843459617        6.4704043877       -0.5878053031
 H          0.2299903525        4.6962903411        2.4346367049
 H         -1.3346388896        5.5076199964        2.2777922966
 H         -0.0095566389        5.9384605530        1.2038775156
 H          0.2737400964        2.5373860929        1.6432775385
 H          1.1701744365        2.3292272668       -1.8216774592
 H          1.5948034250        4.3672601757       -2.8063323689
 H          3.2837572180        4.8831174116       -2.7030370759
 H          2.0655726242        5.6587313901       -1.6981308134
