34
 energy: -52.381737164391 gnorm: 0.000041900705 xtb: 6.7.1 (edcfbbe)
C           -5.15564869213902       -1.53132192109745       -0.00240206432163
C           -5.57066204014570       -0.20091909781113       -0.00254220401965
C           -4.64396775563828        0.81914207948066       -0.00207918334000
C           -3.28049489673572        0.52205327882975       -0.00157977233171
N           -2.34271503343274        1.51209428811828       -0.00125232428220
C           -0.98780429632434        1.30263995864043       -0.00123775531436
C           -0.11174507478495        2.36297450013604       -0.00122099657155
C            1.27709784476495        2.15275994422719       -0.00129490970381
C            1.77321806999028        0.88037231881437       -0.00138250613632
C            3.11928651816664        0.36845285877503       -0.00161036350791
C            4.35601393749215        0.99060140651922       -0.00177241740186
C            5.49589126346830        0.20440568622483       -0.00205217653752
C            5.40952407875934       -1.18545401277720       -0.00224835254948
C            4.18401086720680       -1.82388765036466       -0.00212651825329
C            3.02755777134212       -1.05103828202502       -0.00179221358898
C            1.64791197846484       -1.41712408125365       -0.00152990806204
C            0.88942551459024       -0.26623882284753       -0.00136064253184
C           -0.52749833121666       -0.06819868931261       -0.00126504305457
C           -1.45170384482181       -1.08306881211390       -0.00123991377775
C           -2.84665286590603       -0.82381939226694       -0.00149183185169
C           -3.81468504163861       -1.83794442102848       -0.00185602490991
H           -5.89192533471391       -2.32050459940778       -0.00274316507104
H           -6.62449822096084        0.03303088589719       -0.00298257729065
H           -4.96208756898383        1.85224784488253       -0.00215556788508
H           -2.66520706791656        2.47113634131919       -0.00125314669332
H           -0.49975223490636        3.37201784710967       -0.00120427041395
H            1.93801662111869        3.00732695710288       -0.00137917128133
H            4.43356017046942        2.06867598219714       -0.00175058686137
H            6.46960956384742        0.67343211791558       -0.00228437847742
H            6.31848728730133       -1.77043700670101       -0.00248979095823
H            4.12362748432404       -2.90318411033250       -0.00218806712820
H            1.28713985000719       -2.42985802864804       -0.00160897524886
H           -1.12100821138022       -2.11027839023873       -0.00115737983081
H           -3.48696658680560       -2.86685477597194       -0.00178966024605
