34
 energy: -52.381737160488 gnorm: 0.000107657141 xtb: 6.7.1 (edcfbbe)
C           -5.15856907185819       -1.46477717818741        0.00002003967556
C           -5.56473116942176       -0.13166137481455        0.00002074038609
C           -4.63131188627936        0.88228370071649        0.00001532492700
C           -3.26984787134721        0.57622085085323        0.00001045528577
N           -2.32548629479250        1.55995877232781        0.00000416641071
C           -0.97198617863932        1.34149993713971       -0.00000115366285
C           -0.08890115027758        2.39597410858654       -0.00000478633934
C            1.29855011761359        2.17646612811558       -0.00000251047294
C            1.78621269300423        0.90082104005809       -0.00000477715629
C            3.12881569977993        0.37988891366106       -0.00001332878092
C            4.36968177478108        0.99370020846678       -0.00001967225314
C            5.50425816591122        0.19983443996422       -0.00002091885686
C            5.40854906708048       -1.18940482462850       -0.00001500579104
C            4.17875092671023       -1.81958038933207       -0.00000764725517
C            3.02754015242467       -1.03896725213223       -0.00000737542221
C            1.64546048460577       -1.39580240127569       -0.00000542660565
C            0.89474737538063       -0.23984480265967       -0.00000461182771
C           -0.52081246953662       -0.03235519588935        0.00000277683091
C           -1.45174485458996       -1.04106423065201        0.00000824897800
C           -2.84494396403539       -0.77255465909669        0.00001089654292
C           -3.81963176911554       -1.78026600820999        0.00001563322331
H           -5.90002575170880       -2.24910193690200        0.00002366515511
H           -6.61698162918324        0.10925230996213        0.00002510713007
H           -4.94270208384253        1.91743329013920        0.00001506665251
H           -2.64159875768562        2.52112511186735        0.00000390482783
H           -0.47008379970021        3.40760882557758       -0.00000460838049
H            1.96508460827735        3.02667204658297       -0.00001429309080
H            4.45453778023934        2.07122555723550       -0.00001935404378
H            6.48110133434816        0.66232741226974       -0.00002373369763
H            6.31355139847551       -1.78051736165709       -0.00001865594762
H            4.11113606039344       -2.89845286173259       -0.00000958976540
H            1.27802557760900       -2.40613494430670       -0.00000011221874
H           -1.12794252279199       -2.07047774256540        0.00000696610024
H           -3.49870299182182       -2.81132948947326        0.00001656944604
