34
 energy: -52.343177943685 gnorm: 0.000051105898 xtb: 6.7.1 (edcfbbe)
C           -5.15944816963004       -1.53149694708509       -0.00223576690362
C           -5.57440879423820       -0.20497829732700       -0.00222850966216
C           -4.63541064413972        0.81600673944590       -0.00194842439043
C           -3.28134061538293        0.51693447791523       -0.00169827953193
N           -2.33939126047347        1.51513586645470       -0.00141876745492
C           -0.98088831802699        1.28934210628421       -0.00136710475268
C           -0.09839298860969        2.37420127407444       -0.00125076506683
C            1.27383830538465        2.18247463129186       -0.00127713766342
C            1.76094762242194        0.88182598356256       -0.00143613960210
C            3.11837426641361        0.36601596038486       -0.00168936252203
C            4.34595578175183        0.98635513042924       -0.00183873886058
C            5.49636423066237        0.19674353813346       -0.00204427335744
C            5.41336129970939       -1.18882291783903       -0.00209766375503
C            4.18523989963173       -1.83086959768755       -0.00193995926467
C            3.02547027220603       -1.05880223097212       -0.00173046609133
C            1.65712616124719       -1.42058695370568       -0.00167935112157
C            0.88304271366487       -0.23064365080539       -0.00149183779130
C           -0.51937256964958       -0.04644698938546       -0.00145123135826
C           -1.45882544170829       -1.10005265424283       -0.00156329506503
C           -2.83752415801904       -0.83413555517795       -0.00173155574286
C           -3.81818476039749       -1.84455260381178       -0.00198572443178
H           -5.89583116789373       -2.32152495083011       -0.00244707609670
H           -6.62649144829763        0.03534535331550       -0.00244232643846
H           -4.95246929036984        1.84979441550431       -0.00193320756631
H           -2.66244870472330        2.47239917495039       -0.00139041483205
H           -0.50524453199499        3.37624390595961       -0.00117065721066
H            1.94386870443622        3.02803800080671       -0.00125345201556
H            4.42699001809602        2.06380627638279       -0.00163735174617
H            6.46658239472852        0.67167335637782       -0.00211407699180
H            6.32168294872752       -1.77390520762268       -0.00236949272873
H            4.12631974680903       -2.90970346253514       -0.00214311977543
H            1.27886094144165       -2.42582461565775       -0.00173341826760
H           -1.11723877104381       -2.12169991570925       -0.00158305806516
H           -3.49576390309327       -2.87505631556000       -0.00199912002536
