77
 energy: -111.720699627819 gnorm: 0.000186106571 xtb: 6.7.1 (edcfbbe)
C           -7.15195232230774       -2.60547668764319       -0.42530083020956
C           -5.90373042967235       -3.48543410181983       -0.30498989193321
C           -6.07728048983299       -4.39069818726341        0.92382661574881
C           -5.80208911044150       -4.34503122713801       -1.57405934683932
C           -4.62667803869159       -2.67079724310665       -0.15007143245457
C           -3.40506429339007       -3.34386871765300       -0.01594588067605
C           -2.19856470672897       -2.68948121309345        0.13549316838694
C           -2.20756372804976       -1.30362493320197        0.16455212328629
C           -3.41875024868385       -0.60160776243091       -0.00174064123981
C           -4.61819541934234       -1.28500543581474       -0.15172295260098
C           -3.08558753768321        0.79795285478780        0.00591236456511
C           -3.84600573934555        1.95234352190572       -0.09132618358965
C           -3.23412283257796        3.19799958300135       -0.02623530822371
C           -4.09042213712271        4.45181492406272       -0.14762656749353
C           -4.82099932718773        4.42997936497556       -1.49881294231863
C           -5.11589168892707        4.47197633839102        0.99590850380602
C           -3.27052661060391        5.74361846129683       -0.07330736416624
C           -1.85027266175002        3.24864103076982        0.16121994714174
C           -1.06734527625753        2.11196551439729        0.26295033249602
C           -1.68532784643031        0.87705338645503        0.16413686606660
N           -1.15981746076926       -0.40179161436313        0.26353003459189
C            0.18358094077927       -0.72160148235430        0.44257006281241
C            1.16512016525088       -0.10415834002649       -0.33562324929202
C            2.49759828401976       -0.40279827761673       -0.14588830956217
C            2.88259122816728       -1.33863995789498        0.81590836009534
C            4.29624059097930       -1.71664039241107        1.02368670595716
O            4.60875574564625       -2.84838926259660        1.37114657338590
C            5.32384560821736       -0.67371149718958        0.79552404646918
C            5.07336181440113        0.67760667025281        1.07179687920860
C            6.05454519706580        1.62871909271946        0.88688932135511
C            7.29559433097953        1.22648225887678        0.41399149656976
S            8.65892472022887        2.27025833542945        0.10213603950485
C            9.63164955281156        0.89677090082303       -0.39334105308891
C           10.95015161311716        0.94711834861614       -0.81463608159167
C           11.57158158221998       -0.23566041173114       -1.16868821349165
C           10.88794719169788       -1.44651756460053       -1.10361066826980
C            9.57414826490288       -1.49427552119750       -0.68348868585186
C            8.92656718089552       -0.31599796233745       -0.32167253074551
C            7.57559555888285       -0.12699709768409        0.14372944328030
C            6.58031910028427       -1.07070291528945        0.35196091359312
C            1.89539842132527       -1.97910248857055        1.56728015841967
C            0.56459748674115       -1.66661589226581        1.39765295604665
H           -7.09986325892006       -1.96988960971116       -1.30648604747567
H           -7.27876968182528       -1.98347276655291        0.45804710771165
H           -8.03277722896123       -3.23770277878969       -0.51992527691587
H           -5.25201427171377       -5.09054356323589        1.02256404323468
H           -6.99929008473366       -4.96257650224111        0.84028353566896
H           -6.12471941213174       -3.78957120498135        1.82998715895649
H           -4.97144268159771       -5.04314592497092       -1.51577126191113
H           -6.71757971546233       -4.91645945505803       -1.71388063506151
H           -5.65352464411918       -3.71153380048804       -2.44661750103660
H           -3.39046728611587       -4.42301979825938       -0.03494213447064
H           -1.27946898515886       -3.25072904726075        0.21341969526667
H           -5.52414837139886       -0.71547382980681       -0.27450815540666
H           -4.91451802845550        1.86395200522470       -0.21243263797063
H           -5.42535765832932        5.32771368749722       -1.61281102490642
H           -5.47578698921056        3.56697428289808       -1.58218367202242
H           -4.10179418921671        4.39181586929663       -2.31486760355706
H           -5.72708168306268        5.37030964047579        0.93565184047107
H           -4.60686313298973        4.46448189732332        1.95795231555934
H           -5.77465292784468        3.60894626608721        0.95301701121852
H           -3.93505016279836        6.59930863784586       -0.17731329443388
H           -2.53721698580848        5.78937209955981       -0.87548088958737
H           -2.76086774896169        5.83098767444894        0.88367612295955
H           -1.35228397108849        4.20112899139095        0.23573020027877
H           -0.00419213745719        2.19984251325736        0.42875569624656
H            0.87040557421684        0.59387613882393       -1.10427903262834
H            3.24424814155436        0.06367051243954       -0.77106923337675
H            4.11035887489424        0.97277642924466        1.45912105940811
H            5.86675698464704        2.66817328106194        1.10684974722785
H           11.47375402994342        1.88937842125608       -0.86198298306327
H           12.59954683518691       -0.21844791096073       -1.49814402327512
H           11.39322563000243       -2.35852172661645       -1.38418068561244
H            9.04540502608133       -2.43387473209523       -0.63190880565258
H            6.76196038517947       -2.11836326764227        0.16362944239888
H            2.19964458086115       -2.70916733588068        2.30325162330652
H           -0.18749949803256       -2.13588749305089        2.01313051929528
