  79
       -122.03805840
 C          5.5145184625        0.5680515369       -3.3793418364
 C          4.6122155298        1.0646741389       -2.2901000419
 C          4.0698918531        2.3489458228       -2.3760387270
 C          3.2195754119        2.8485498913       -1.4060801853
 C          2.9079958710        2.0497972933       -0.3168523097
 C          2.0681558925        2.2114383730        0.8380653917
 C          1.2431610888        3.2241726659        1.2974295825
 C          0.5635009923        3.0365102507        2.4864392451
 C          0.7047126501        1.8684578328        3.2475793633
 C         -0.0668258529        1.7241190179        4.5238804355
 C          1.5289527941        0.8519091697        2.8040940548
 C          2.1832214961        1.0118829195        1.5850655602
 N          3.0328371657        0.1537711709        0.9449994281
 C          3.2991449743       -1.1859457143        1.2767693721
 C          4.6049623957       -1.5651351995        1.5303836192
 C          4.9319442495       -2.8897411608        1.7760982191
 C          3.9313434845       -3.8625520719        1.7368698558
 C          2.6328700519       -3.5140208406        1.4715456876
 C          2.2670817033       -2.1683556484        1.2395708641
 C          0.9392340198       -1.8484955221        0.8894117789
 N          0.3490315202       -0.6623246049        0.9200201440
 N         -0.8738954545       -0.7886601699        0.5200903647
 C         -1.0903064990       -2.0617870223        0.1985824031
 C         -2.2675170252       -2.5818347849       -0.3647318391
 C         -2.5218278419       -3.9704383936       -0.4183283213
 C         -3.7171694557       -4.4469187460       -0.8891039362
 C         -4.7120908075       -3.5679429622       -1.3276402000
 C         -4.4730693197       -2.2020266388       -1.3238307221
 C         -3.2661739169       -1.6961844983       -0.8773145530
 N         -3.0087542328       -0.3207895699       -0.9414445398
 C         -3.7272682883        0.6614239963       -0.3132137154
 C         -4.8887905863        0.5524631699        0.4438284567
 C         -5.4261681201        1.6990863166        1.0000215871
 C         -6.6783914577        1.6397020558        1.8217366125
 C         -4.7955135510        2.9356870496        0.8014003073
 C         -3.6313580935        3.0525237935        0.0680471657
 C         -3.0834380796        1.9117275438       -0.4987713767
 C         -1.9119959214        1.6521297210       -1.2863316769
 C         -0.8881474586        2.4464056079       -1.7814888513
 C          0.1115211617        1.8515347113       -2.5250822670
 C          0.1031197840        0.4831933358       -2.8096376232
 C          1.2284318494       -0.1127398081       -3.5990456405
 C         -0.9270377373       -0.3165280965       -2.3376360628
 C         -1.9048263464        0.2640812289       -1.5444005332
 O          0.0310573127       -2.8152984498        0.4806805447
 C          3.4776511392        0.7609302881       -0.2150418345
 C          4.3152580889        0.2592529740       -1.1976255019
 H          6.4314791621        1.1562316396       -3.4078303487
 H          5.7781890469       -0.4746063815       -3.2221965802
 H          5.0294602620        0.6634722888       -4.3497793042
 H          4.3212183125        2.9600522175       -3.2311026086
 H          2.8038022710        3.8409279622       -1.4953351499
 H          1.1321906799        4.1400933678        0.7369230903
 H         -0.0953980700        3.8120274390        2.8498677302
 H         -1.1103194738        1.5046683262        4.2973577806
 H         -0.0359183200        2.6450044891        5.1033450384
 H          0.3286878472        0.9122001613        5.1286329901
 H          1.6503234713       -0.0572927713        3.3730596309
 H          5.3721677252       -0.8036904681        1.5413022621
 H          5.9520409529       -3.1643698995        1.9936853126
 H          4.1851849946       -4.8970631454        1.9153582475
 H          1.8559264397       -4.2622834897        1.4345896825
 H         -1.7543278631       -4.6422629442       -0.0654750072
 H         -3.8975434317       -5.5114290376       -0.9198045473
 H         -5.6520714323       -3.9507458347       -1.6926590629
 H         -5.2168344877       -1.5183877165       -1.7079793090
 H         -5.3540354661       -0.4092230906        0.6011920232
 H         -7.4453559563        2.2831211688        1.3919916666
 H         -6.4830390601        1.9886965895        2.8351861410
 H         -7.0637572551        0.6247803160        1.8729100930
 H         -5.2364158017        3.8159336156        1.2468451783
 H         -3.1536065028        4.0119945913       -0.0598324423
 H         -0.8740936826        3.5078253661       -1.5858380834
 H          0.9266137167        2.4498240393       -2.9039667123
 H          1.4657562417        0.5064105451       -4.4620987606
 H          0.9807878904       -1.1148982808       -3.9397289618
 H          2.1225858630       -0.1700795222       -2.9769524963
 H         -0.9484399807       -1.3744967922       -2.5565682973
 H          4.7245177265       -0.7374600016       -1.1181814745
