79
 energy: -122.121593258609 gnorm: 0.000044892755 xtb: 6.7.1 (edcfbbe)
C            4.22513089250127        2.23716619871567       -3.72029750674988
C            3.76779516270983        2.18734886600829       -2.29186011964935
C            3.44458096787874        3.37678723270500       -1.63140751179475
C            3.02227221886965        3.38694694159564       -0.31804754014348
C            2.92190935720110        2.18105673434138        0.36221187910884
C            2.53945347393210        1.81528580674293        1.69741897623467
C            2.16500569869591        2.53477050420854        2.82435798835078
C            1.90082508413024        1.84849109336184        3.99063165468546
C            2.01269945606195        0.45656680627441        4.06925157143546
C            1.71143248483470       -0.23616039606001        5.36488629640257
C            2.38593609425101       -0.27154285728815        2.95238701589669
C            2.62694160331747        0.40997452675482        1.77096204197935
N            3.04825718475377       -0.08429609877817        0.55216445648861
C            3.21439181670048       -1.42638882368712        0.21177745716934
C            4.47001308195333       -1.87142619019643       -0.19461326281000
C            4.67900772072080       -3.19257142844072       -0.54040802359362
C            3.63009246213815       -4.09888282378659       -0.48484422631646
C            2.37366625214126       -3.67110040251929       -0.10854392766635
C            2.14300197434367       -2.33717792825683        0.23294541853874
C            0.78891762023289       -1.90390178013510        0.48677431798212
N            0.36890548595513       -0.76240735728353        0.94413424006147
N           -0.96553053168835       -0.77707699507058        0.90015164512043
C           -1.32269678920272       -1.92365673738207        0.40665194257447
C           -2.67042123383829       -2.35244709856475        0.07807861196633
C           -3.07454767215063       -3.65997519209254        0.32172612187758
C           -4.37172913352006       -4.05268942327538        0.05023643649471
C           -5.27151287320047       -3.14019014614958       -0.47795550250832
C           -4.87131922850760       -1.84675566988329       -0.75931014208495
C           -3.56876721369564       -1.43534776113249       -0.49477020216581
N           -3.15618956081348       -0.14344009459815       -0.82122976611674
C           -3.70710411698756        1.02628816930307       -0.32354242061021
C           -4.85951758266868        1.20687732727486        0.42381941167995
C           -5.20417986394704        2.49254222880951        0.80988573519524
C           -6.44603678591275        2.74120793026430        1.61326121517584
C           -4.39066278574925        3.57218729511275        0.45296937340737
C           -3.22885648438494        3.39691614566722       -0.26915665665425
C           -2.87509116111026        2.11393382997428       -0.66362450032209
C           -1.76043736477313        1.57116217080207       -1.38900955760702
C           -0.61646835660084        2.11976829531905       -1.95102707114570
C            0.27803057994681        1.28434181154704       -2.58729643219212
C            0.04338942479842       -0.08697140290792       -2.70849096544937
C            1.04356422479718       -0.96803503636148       -3.39744321525868
C           -1.10446867091497       -0.64329540534085       -2.16477147007324
C           -1.97691150973097        0.18027234749340       -1.47107759202867
O           -0.25385256199354       -2.70691881571533        0.14536958135585
C            3.24576356538147        0.98053804808254       -0.30593262509290
C            3.66524218301820        0.97605851060521       -1.62625436177025
H            4.35115746326559        1.23580645646937       -4.12548248177478
H            3.50453338132821        2.77495485818128       -4.33570590630464
H            5.17789247956944        2.76134157682382       -3.79457949363224
H            3.52832459200490        4.30799838462310       -2.17369414766091
H            2.77225223344497        4.31494007583781        0.17370907908821
H            2.08734284341765        3.61104832862683        2.78708385887601
H            1.60436730044953        2.39377006739759        4.87539990994567
H            0.63638197931320       -0.23425766775553        5.54580620952941
H            2.19057473236451        0.27607582011776        6.19756688387443
H            2.05283135750906       -1.26837300613466        5.34441210473155
H            2.48199714647989       -1.34702669384000        3.00013664248529
H            5.28407801521281       -1.16233468670912       -0.22123209973761
H            5.66182407779238       -3.51966554915700       -0.84474886255242
H            3.79189007479038       -5.13389813581602       -0.74433068316706
H            1.54651130622613       -4.36481118247685       -0.08542013146819
H           -2.36845539786778       -4.35820012553900        0.74656712230667
H           -4.68137201019921       -5.06656325604238        0.25213047365516
H           -6.28611682515163       -3.44351731056027       -0.68865191030234
H           -5.55894654855917       -1.14669540655355       -1.20919412072534
H           -5.47337218172385        0.36654461065541        0.71374437649259
H           -7.11584298281925        3.41453985530812        1.07916394284663
H           -6.19420519849311        3.20956932514385        2.56401425697223
H           -6.97450972860457        1.81263887784304        1.81402413138270
H           -4.68274324713267        4.56492671285881        0.76429702380901
H           -2.60176411996717        4.23840402911868       -0.52178686611842
H           -0.42397885129813        3.17937278949682       -1.88226802377691
H            1.18346881111810        1.69557555699403       -3.00624913809279
H            1.66096556480057       -0.39073006288483       -4.08103724779846
H            0.54673939798835       -1.76189780399093       -3.95248940299546
H            1.69954921600430       -1.43495252517312       -2.65986393108633
H           -1.30077716817073       -1.70212305002331       -2.27370094798701
H            3.90291292663564        0.05050050199570       -2.13119483025199
