54
 energy: -92.860780526476 gnorm: 0.000042000300 xtb: 6.7.1 (edcfbbe)
C           -5.69503245233074        2.33996280733854       -2.50687546596847
C           -4.68527948054890        3.10953070421193       -1.94928440876752
C           -3.67256955601572        2.47989667251439       -1.24961128371325
C           -3.71777195278372        1.09161894968024       -1.12298901666910
C           -2.65815885516322        0.38080315931243       -0.40103333461438
N           -1.40095325852300        0.74508097960236       -0.61273709839983
C           -0.38344647799162        0.07519752688661       -0.08005443160818
C            0.94817537213611        0.40263851251329       -0.28901997672944
C            1.95555008433085       -0.40006258340487        0.26658344448189
N            3.31541138731113       -0.08711695368691        0.08451954904285
C            4.16068344700278       -0.96567029976135       -0.59219690741978
C            3.68971525318280       -2.11776845159241       -1.21230339292388
C            4.55621368705447       -2.96499967419536       -1.88293568061412
C            5.90506498654644       -2.67324389013649       -1.95323084106953
C            6.38730225752088       -1.51581214114745       -1.36258901670605
C            5.52665081438616       -0.66402759375062       -0.69347762963715
O            6.06804077201239        0.47573542856995       -0.15936954748835
C            5.22639530169898        1.32538936705572        0.50919073428331
C            5.78779967662331        2.46569311684509        1.05531855939400
C            5.00150421253615        3.36098905290185        1.76352247405753
C            3.65511003383176        3.10155955976918        1.93276897685634
C            3.08633167085277        1.96207878499085        1.38759596650941
C            3.85567062813957        1.06554669938316        0.65434592646474
C            1.57902241884330       -1.51291431201562        1.00374055845520
N            0.31267695913058       -1.83647014196037        1.20733022805164
C           -0.67612356385682       -1.10812938132073        0.72895799167185
N           -1.93767530235454       -1.40540162186146        0.97679043106184
C           -2.93897285089791       -0.68113090527849        0.47462789070429
C           -4.29694088321459       -0.98859324786625        0.90840731318981
C           -4.63665338194931       -2.29886560439237        1.25716746278696
C           -5.92985427137947       -2.55662408715073        1.66766726274026
C           -6.83859360723387       -1.50924219891060        1.72814619637492
C           -6.39336042296459       -0.23999715145309        1.38721184743171
N           -5.16328086212639        0.01749193544647        0.99481708849074
N           -4.67247553326110        0.35328230848472       -1.67942445154202
C           -5.63017058105473        0.96292092946226       -2.34676747297061
H           -6.50542010598216        2.79291781994635       -3.05657516542650
H           -4.68797064465977        4.18468115332420       -2.05993441367025
H           -2.86307875351687        3.03264168091864       -0.80025745539407
H            1.19780120622207        1.25160457128982       -0.90445051396397
H            2.63705362042558       -2.34931373303399       -1.17300675063960
H            4.16562369282943       -3.85453352315947       -2.35208062000603
H            6.58308615223405       -3.33321178391704       -2.47059788868817
H            7.43131310466659       -1.25113863664665       -1.41213558462681
H            6.84449600551372        2.63026578668194        0.91833327304818
H            5.44688270478004        4.24809287342361        2.18503562986080
H            3.03508193928630        3.78268261106313        2.49464207430422
H            2.03717437921149        1.76382057222152        1.53831933375807
H            2.31300884764412       -2.16574485272241        1.45360580977952
H           -3.88899489877907       -3.07305931653686        1.19541575906754
H           -6.22892228087252       -3.55941255775347        1.93791795797422
H           -7.85888429804446       -1.66975134199231        2.03977550316000
H           -7.05255186977847        0.61761048560714        1.43762450738420
H           -6.38024407943520        0.31271843262437       -2.77899784580902
