54
 energy: -92.893973980572 gnorm: 0.000074537874 xtb: 6.7.1 (edcfbbe)
C           -5.61827656091043        1.41542515114105       -3.03769078651811
C           -4.58228019692900        2.31030135389507       -2.82000553092829
C           -3.54684468092722        1.94074475233075       -1.98047202672888
C           -3.59854555772689        0.68561575793336       -1.37771702448685
C           -2.53023621533431        0.24692194804706       -0.47225358582745
N           -1.29202971991766        0.52137591056557       -0.79783037747623
C           -0.30875483648260       -0.00964634388900       -0.04353890900131
C            1.04020436578214        0.25713722744717       -0.32820410867506
C            2.00510724162203       -0.40811694136602        0.39724196199613
N            3.37408664407789       -0.18985204429544        0.18754534768037
C            4.21026278926249       -1.26017065093516       -0.15231414096451
C            3.71429361425649       -2.52887534406793       -0.42703105630384
C            4.56857717158904       -3.56824088786737       -0.76078378652465
C            5.92975706083271       -3.35360334973476       -0.84359733846217
C            6.43630785184586       -2.08357007130608       -0.61490985060575
C            5.58801556792738       -1.04332305378117       -0.28127626736484
O            6.15777227482851        0.19104550289652       -0.10556087710048
C            5.32180942162960        1.24048900192757        0.17796324204573
C            5.91262550822196        2.48250064972614        0.32568765751736
C            5.14547287955720        3.58902135423402        0.65447983409947
C            3.78764693431690        3.43863034400980        0.85118095096093
C            3.18978782946696        2.19730732272264        0.69818014859931
C            3.93836609410408        1.08394179121648        0.33775656906475
C            1.58409350252945       -1.33422355058123        1.38726870217590
N            0.34381619368369       -1.57746985927047        1.68561726527688
C           -0.61716988159203       -0.92013347473132        1.01059668797817
N           -1.88907818215720       -1.10145845789276        1.39310870331722
C           -2.83300541231390       -0.49595712903992        0.71552715296152
C           -4.20386770697511       -0.56535637899589        1.22996015085315
C           -4.65846170704696       -1.71509591374638        1.87365546428163
C           -5.96146793626073       -1.73708486268599        2.33696473115585
C           -6.75567675399390       -0.61543238135207        2.15319905793413
C           -6.19728980497687        0.48677271449487        1.52093891275988
N           -4.95945828660956        0.51869932660549        1.07054706330237
N           -4.58330209091607       -0.18098261195728       -1.60044438776471
C           -5.56015747608695        0.18023590366576       -2.40736445688422
H           -6.44604816543029        1.66436376219358       -3.68350184428531
H           -4.58192075523900        3.27911182408928       -3.29893102397699
H           -2.71539569828390        2.59607409380677       -1.77754532013002
H            1.29038126969846        0.95322594766165       -1.11481075196443
H            2.65129542807780       -2.70877962389237       -0.38691319373936
H            4.15591979174812       -4.54485127364565       -0.96046613061892
H            6.59892663437470       -4.15993368570770       -1.09858293089699
H            7.49117821439281       -1.87533336887906       -0.69475336639438
H            6.97913377116106        2.55792742242205        0.18659576124865
H            5.61434643392304        4.55376853461089        0.76558347731458
H            3.17843990817562        4.28471566717766        1.12894549811534
H            2.13087563468123        2.09708779725213        0.87608559219872
H            2.32654019714257       -1.86927458164809        1.96650233443399
H           -3.99243046736809       -2.55409890206211        1.99147092647262
H           -6.35287416484682       -2.61262705561216        2.83495204565058
H           -7.77816956546285       -0.59136720348892        2.49705020487457
H           -6.76817256727308        1.39425491835277        1.36934280571619
H           -6.33412883785896       -0.56183797797885       -2.55745017633929
