54
 energy: -92.893976036821 gnorm: 0.000069016977 xtb: 6.7.1 (edcfbbe)
C           -5.74422354299662        2.26765314616141       -2.45105633793335
C           -4.72938766634685        3.06470946996271       -1.94488282411227
C           -3.68089986087493        2.46289907568632       -1.27251386907180
C           -3.69851012378089        1.07790447319979       -1.12169404961502
C           -2.61456744893825        0.39031344666098       -0.41026502027409
N           -1.38547539545887        0.78806007826862       -0.62416377615738
C           -0.38488269126581        0.06363150738555       -0.08389815070548
C            0.95525914589175        0.44350178862350       -0.26183589089273
C            1.94088538275322       -0.39633707378378        0.21059224885448
N            3.30265740524644       -0.08606243762333        0.08941018383600
C            4.16572473372496       -0.96877519642787       -0.57122962515042
C            3.70143810467197       -2.08992027090080       -1.24841062285447
C            4.58171855141320       -2.94579795431162       -1.89187627265203
C            5.93761998859846       -2.68644746683556       -1.88528028059930
C            6.41248929912367       -1.54835752968341       -1.25195369070189
C            5.53808665844336       -0.69129658626579       -0.60857749798496
O            6.07679164444970        0.43199721905137       -0.03675124925953
C            5.21420274363587        1.31541697355389        0.55993309813155
C            5.77379608567332        2.45734233448321        1.10434011130588
C            4.97897238023301        3.38156969384565        1.76389243266817
C            3.62502040158665        3.14459147406359        1.88912817874835
C            3.05835350593325        2.00498937344909        1.33964340806075
C            3.83472616907170        1.08413893241441        0.64740268926554
C            1.54893833832191       -1.60557092929181        0.84255531179007
N            0.31697105472347       -1.96573025657587        1.03974643396602
C           -0.66425152674223       -1.14950947018956        0.61274226045653
N           -1.92910678416610       -1.48047321758017        0.90868757838868
C           -2.89189707567902       -0.71089494945702        0.46407154801802
C           -4.25824018284805       -0.98430750974661        0.91939808789033
C           -4.67851442845803       -2.29466717701902        1.14126772225580
C           -5.97853500416678       -2.50511898201001        1.56388511369837
C           -6.80390116092356       -1.40830820934876        1.75987559249156
C           -6.27840632480338       -0.14373475305871        1.53386063516831
N           -5.04379052245556        0.06999462662945        1.12619544794862
N           -4.66290370947057        0.31044830281336       -1.62299466395126
C           -5.65258704470744        0.89501239184315       -2.26690988728564
H           -6.58122482539673        2.69641607177266       -2.98004363769439
H           -4.75522737564269        4.13735243290643       -2.07429784011961
H           -2.86484037832919        3.03410491233797       -0.86050330505692
H            1.18304891420504        1.36407887611269       -0.77806516903345
H            2.64295520144454       -2.29620466740046       -1.28045414536580
H            4.19347209071448       -3.81341563148714       -2.40220252157120
H            6.62699422260809       -3.35183487172707       -2.38022874475507
H            7.46225831753778       -1.30251108881744       -1.24839098767108
H            6.83834944970947        2.59786746674348        1.00696584328208
H            5.42352239779589        4.27008330318477        2.18322409044217
H            2.99455120550489        3.84207903267667        2.41846785982224
H            2.00206617476837        1.82861082734349        1.46650109910224
H            2.30788516779047       -2.28054114064698        1.21865141190653
H           -3.98930374931189       -3.10663401826741        0.97657479715285
H           -6.34379870394948       -3.50683722434363        1.73970845848855
H           -7.82531452983660       -1.52794533141851        2.08654536296894
H           -6.87450500258091        0.74658592009214        1.69017680169514
H           -6.40901119793902        0.22607924078770       -2.65752825353782
