  54
        -92.89395683
 C         -5.7402841833        2.2676193640       -2.4525251058
 C         -4.7127957722        3.0608313836       -1.9664327068
 C         -3.6656413537        2.4574971467       -1.2932607201
 C         -3.6965730920        1.0750854930       -1.1223427356
 C         -2.6140536618        0.3863126790       -0.4105724797
 N         -1.3843997627        0.7825446742       -0.6243683513
 C         -0.3846760865        0.0566589408       -0.0847472656
 C          0.9556923601        0.4369236919       -0.2596692126
 C          1.9405996516       -0.4041168506        0.2121604563
 N          3.3024797109       -0.0924290230        0.0965777576
 C          4.1676095739       -0.9697976890       -0.5685369171
 C          3.7058841897       -2.0875824346       -1.2529182164
 C          4.5882389351       -2.9376765502       -1.9011761148
 C          5.9436420356       -2.6758413421       -1.8922111486
 C          6.4159732736       -1.5410491166       -1.2511563656
 C          5.5395612647       -0.6899047064       -0.6027392286
 O          6.0758559165        0.4302513305       -0.0227224783
 C          5.2099434617        1.3140349040        0.5685498345
 C          5.7659571377        2.4588145059        1.1106310846
 C          4.9677893034        3.3835163880        1.7654063657
 C          3.6141312277        3.1438072431        1.8887115980
 C          3.0510703517        2.0014096582        1.3413887784
 C          3.8306817960        1.0802804700        0.6531083288
 C          1.5476002772       -1.6162507666        0.8379889163
 N          0.3152491183       -1.9770707882        1.0319055219
 C         -0.6652751112       -1.1583853931        0.6080994800
 N         -1.9305142781       -1.4878846951        0.9043754623
 C         -2.8923134470       -0.7151363967        0.4633441839
 C         -4.2584428980       -0.9844014190        0.9221998607
 C         -4.6872421978       -2.2939713429        1.1319895059
 C         -5.9866747068       -2.4992047129        1.5590653010
 C         -6.8025246277       -1.3984064172        1.7720329202
 C         -6.2685798151       -0.1354365484        1.5575210908
 N         -5.0347918503        0.0735438246        1.1450387353
 N         -4.6733596185        0.3110013335       -1.6046942386
 C         -5.6620438625        0.8968296514       -2.2487021499
 H         -6.5768205757        2.6976249140       -2.9811492831
 H         -4.7278085142        4.1316925127       -2.1115950140
 H         -2.8403467512        3.0257367923       -0.8957816680
 H          1.1842076523        1.3590796164       -0.7727367514
 H          2.6478477979       -2.2958799914       -1.2867383999
 H          4.2019586594       -3.8027332865       -2.4173111013
 H          6.6345401757       -3.3363892914       -2.3914743687
 H          7.4652673696       -1.2931245855       -1.2453573009
 H          6.8305325702        2.6009316866        1.0158547024
 H          5.4095283373        4.2743293575        2.1828197541
 H          2.9808436872        3.8418428355        2.4139289134
 H          1.9948692105        1.8233719664        1.4665461732
 H          2.3059242953       -2.2935416995        1.2111122761
 H         -4.0052757771       -3.1094807530        0.9547946655
 H         -6.3587624573       -3.5000089803        1.7255752629
 H         -7.8230938813       -1.5138886348        2.1028303513
 H         -6.8566798193        0.7575319993        1.7278760518
 H         -6.4290686736        0.2306694511       -2.6230865780
