  85
  -120.469149882300       0.266535183329478      !
 C          8.3132835487       -2.6801576258       -5.2230198495
 C          7.8242528810       -1.4749351212       -4.4297580627
 C          6.8710784233       -1.8810458931       -3.3084217696
 C          6.4011990895       -0.6790352075       -2.4930404713
 C          5.4671311678       -1.0875992765       -1.3584316706
 C          5.0622210638        0.1200419024       -0.5047272445
 N          4.2735275649       -0.2427738186        0.6450802656
 C          2.8799529687       -0.2517249544        0.5872172477
 C          2.1770405123       -0.1371440009       -0.6053509597
 C          0.6942104066       -0.1041528617       -0.6834237109
 C         -0.0101294792       -0.1662844997        0.6410688253
 C         -1.4044407615       -0.0746289523        0.6935638779
 C         -2.3101069593        0.1718834995       -0.4565173532
 C         -2.8363673722        1.5947051362       -0.4063669199
 C         -2.1242282923        2.7706221978       -0.4285294715
 C         -2.8097364967        3.9854431132       -0.3493824656
 C         -2.0699516499        5.2542193722       -0.3793738151
 C         -2.4253107805        6.3066772160        0.4621310714
 C         -1.7262392556        7.4986409903        0.4338334814
 C         -0.6634831247        7.6633828264       -0.4387363248
 C         -0.3022072860        6.6253724955       -1.2813412863
 C         -0.9965265276        5.4306999910       -1.2502170889
 C         -4.2022225550        3.9813221652       -0.2409978032
 C         -4.9207077646        2.8009556874       -0.2120856333
 C         -4.2357977959        1.5978336276       -0.2918799324
 C         -4.7023597228        0.2261464730       -0.2746756839
 C         -5.9789742509       -0.3070131751       -0.1848181236
 C         -6.1278437617       -1.6816845361       -0.1765563521
 C         -5.0263283429       -2.5354570771       -0.2504579798
 C         -5.2127909747       -3.9923831200       -0.2194742287
 C         -6.2517875468       -4.5948609699       -0.9261360677
 C         -6.4257823363       -5.9655673392       -0.8913280052
 C         -5.5688680910       -6.7580316912       -0.1458628349
 C         -4.5333407159       -6.1703390741        0.5615696827
 C         -4.3539470033       -4.8004540856        0.5232383433
 C         -3.7416787470       -1.9918475342       -0.3457942560
 C         -3.5900579309       -0.6257932177       -0.3643961277
 C          0.7335463894       -0.3228554031        1.7883627138
 C          2.1599629701       -0.3817424915        1.7761684806
 O          2.7568540628       -0.5553686414        2.9924298898
 C          4.1137907352       -0.7159602219        3.0085091102
 C          4.6962663851       -1.0183275158        4.2270846802
 C          6.0704031257       -1.1927285483        4.3225883262
 C          6.8457550014       -1.0764373115        3.1899445013
 C          6.2641194420       -0.7778197418        1.9616854556
 C          4.8940047996       -0.5775267340        1.8460601683
 H          8.9893069118       -2.3678864077       -6.0151003599
 H          8.8422686702       -3.3742648024       -4.5738176866
 H          7.4747460822       -3.2059564462       -5.6741868795
 H          7.3154411622       -0.7794531373       -5.1010544162
 H          8.6816515053       -0.9516299076       -4.0003876144
 H          7.3754506601       -2.5888039058       -2.6467417638
 H          6.0045021962       -2.3897720986       -3.7365104583
 H          7.2724373122       -0.1676998407       -2.0761660997
 H          5.8890936580        0.0278150114       -3.1501434854
 H          4.5715194262       -1.5594922896       -1.7657643267
 H          5.9632959851       -1.8231381443       -0.7231477712
 H          4.4904248431        0.8289158701       -1.1075480436
 H          5.9580081718        0.6415837552       -0.1568567071
 H          2.6911735905       -0.0853605441       -1.5490220781
 H          0.3464121842       -0.9406320060       -1.3120243208
 H          0.3787495342        0.8057976333       -1.2179914674
 H         -1.8796958188       -0.1063102014        1.6624659361
 H         -1.8042745689       -0.0154531199       -1.4066615445
 H         -1.0451158833        2.7625683049       -0.4801827470
 H         -3.2418803181        6.1785806153        1.1576377312
 H         -2.0097263433        8.3026498285        1.0973752593
 H         -0.1192763575        8.5958209216       -0.4616410636
 H          0.5230367559        6.7490576740       -1.9677360545
 H         -0.7215164119        4.6314800665       -1.9235149646
 H         -4.7266614002        4.9246682688       -0.1969156613
 H         -5.9972536877        2.8171273374       -0.1282474574
 H         -6.8428740827        0.3373381189       -0.1161250082
 H         -7.1159366817       -2.1087021370       -0.0847795285
 H         -6.9133444802       -3.9835467135       -1.5228199823
 H         -7.2329987364       -6.4185236060       -1.4484995254
 H         -5.7080885244       -7.8284865481       -0.1154036813
 H         -3.8649105672       -6.7832011329        1.1489633325
 H         -3.5555816813       -4.3455047934        1.0916251633
 H         -2.8819933763       -2.6417703675       -0.4215556624
 H          0.2527138987       -0.3841788720        2.7511322378
 H          4.0560573388       -1.1055821227        5.0902758710
 H          6.5177393812       -1.4211408677        5.2768174263
 H          7.9145905768       -1.2168067846        3.2423841670
 H          6.9039832114       -0.7056280783        1.0985969358
  85
  -120.469033718400       0.235705280964331      !
 C          9.7672258993        1.8508746023        3.0590693517
 C          8.8643266578        0.6275711501        3.1569229944
 C          7.8253332754        0.5981472547        2.0385776489
 C          6.9075112787       -0.6174384280        2.1392406173
 C          5.8680711441       -0.6396037958        1.0230808116
 C          4.9426115065       -1.8561536519        1.1404670325
 N          3.9368469907       -1.8953971164        0.1097382995
 C          2.7081608552       -1.2603613949        0.2888831690
 C          2.4382165666       -0.4392020896        1.3783682056
 C          1.1104577607        0.1742616589        1.6212290468
 C          0.1156852325        0.0017237251        0.5072635361
 C         -1.0896397899        0.6968706533        0.6493489874
 C         -2.1834734763        0.7395433989       -0.3545171261
 C         -2.8746466112        2.0794347924       -0.3991249225
 C         -2.3324451726        3.3055926973       -0.7043479048
 C         -3.1475283010        4.4400932131       -0.6709917520
 C         -2.5875468852        5.7600270823       -0.9937289622
 C         -2.9345657785        6.8847384080       -0.2481966966
 C         -2.4019579349        8.1235314228       -0.5525987661
 C         -1.5186123109        8.2618094845       -1.6102871852
 C         -1.1685953749        7.1513762789       -2.3602577394
 C         -1.6953150649        5.9108377564       -2.0534276608
 C         -4.4945191490        4.3064103219       -0.3309879096
 C         -5.0443927572        3.0745985274       -0.0259794676
 C         -4.2295339487        1.9534242443       -0.0548803734
 C         -4.5050886089        0.5572279326        0.2242007753
 C         -5.6707310385       -0.0921161412        0.6006689344
 C         -5.6366421851       -1.4588320728        0.8064398571
 C         -4.4598281262       -2.1934441626        0.6447382581
 C         -4.4538089470       -3.6459447551        0.8658096057
 C         -5.1764828432       -4.2120502266        1.9143716881
 C         -5.1720433385       -5.5793635447        2.1168480439
 C         -4.4485868751       -6.4066374216        1.2742227373
 C         -3.7256726990       -5.8557869121        0.2293124674
 C         -3.7258194884       -4.4884220257        0.0276512646
 C         -3.2875044516       -1.5347806029        0.2646180130
 C         -3.3212893076       -0.1770416134        0.0513723183
 C          0.4382156581       -0.8065431376       -0.5565273061
 C          1.7080376705       -1.4514318505       -0.6648593490
 O          1.8806504335       -2.2281148359       -1.7783044773
 C          3.1396945809       -2.6993230973       -2.0235679681
 C          3.3403647903       -3.3603637195       -3.2225243095
 C          4.5951961290       -3.8595002880       -3.5458747950
 C          5.6419828808       -3.6723742809       -2.6705140415
 C          5.4455693113       -3.0052993879       -1.4652086756
 C          4.1927268187       -2.5234311592       -1.1071475741
 H         10.4943487758        1.8552396885        3.8673052419
 H         10.3045135739        1.8537245370        2.1132684740
 H          9.1794591435        2.7641271422        3.1206576131
 H          8.3534848051        0.6296261570        4.1225320473
 H          9.4728233454       -0.2782183580        3.1073211164
 H          8.3353156761        0.5865100118        1.0727246447
 H          7.2232354278        1.5085393432        2.0826013642
 H          7.5084366788       -1.5288393152        2.0940397442
 H          6.3996790776       -0.6065512540        3.1067161665
 H          5.2669009684        0.2704656165        1.0615175981
 H          6.3687544270       -0.6595864500        0.0535523957
 H          4.4402552059       -1.8481062780        2.1106166584
 H          5.5284163754       -2.7772089826        1.0895661826
 H          3.1948447998       -0.2159977829        2.1092285989
 H          1.2326657423        1.2476232675        1.8315688954
 H          0.6687782211       -0.2428155021        2.5432671210
 H         -1.2731464527        1.2306162547        1.5694216329
 H         -1.8046639119        0.4640491015       -1.3422628711
 H         -1.2832940567        3.3965330384       -0.9452681282
 H         -3.6101136295        6.7804772241        0.5885457632
 H         -2.6749299869        8.9853126014        0.0391747404
 H         -1.1044717078        9.2302326731       -1.8486964991
 H         -0.4827586906        7.2531528203       -3.1888747025
 H         -1.4314162485        5.0511551251       -2.6523134362
 H         -5.1230214785        5.1851577229       -0.3265173553
 H         -6.0906674741        2.9905390960        0.2277522306
 H         -6.5913156389        0.4577929732        0.7292795113
 H         -6.5442492835       -1.9768451063        1.0799305301
 H         -5.7284636087       -3.5719777572        2.5871764497
 H         -5.7338720460       -6.0021732840        2.9371449795
 H         -4.4476488741       -7.4750396666        1.4315479641
 H         -3.1608552696       -6.4955527407       -0.4331438039
 H         -3.1736538583       -4.0680162556       -0.8000402434
 H         -2.3631426246       -2.0831413971        0.1602691044
 H         -0.2556793430       -0.9943193939       -1.3588959829
 H          2.4999261699       -3.4785912117       -3.8876138986
 H          4.7416046633       -4.3808563566       -4.4785128157
 H          6.6276680631       -4.0408915269       -2.9100227703
 H          6.2922625253       -2.8700181734       -0.8135656931
  85
  -120.468944636500       0.214501387759823      !
 C          9.5554240350        1.6105766229        3.8393836324
 C          8.6951319230        0.3651269608        3.6656272109
 C          7.6965441461        0.5206024714        2.5212935771
 C          6.8346969630       -0.7258518258        2.3377113614
 C          5.8448948660       -0.5686426247        1.1877696987
 C          4.9872469124       -1.8265896393        1.0084403473
 N          4.0420985464       -1.7108208354       -0.0726372543
 C          2.7654289586       -1.1950310986        0.1485601589
 C          2.3888140270       -0.6134059178        1.3543591602
 C          1.0151939783       -0.1258793227        1.6256074497
 C          0.0730036070       -0.1825500292        0.4549686939
 C         -1.1971341918        0.3622172442        0.6706468488
 C         -2.2755461715        0.5005735361       -0.3408202051
 C         -2.8703793583        1.8895727366       -0.3321023758
 C         -2.2370170358        3.0865702744       -0.5707563735
 C         -2.9700320131        4.2736222966       -0.4931547403
 C         -2.3139405751        5.5651934351       -0.7397216935
 C         -2.6106040951        6.6764866339        0.0471033933
 C         -1.9897846521        7.8896669920       -0.1833841705
 C         -1.0646106615        8.0160271878       -1.2062106651
 C         -0.7623543430        6.9190005353       -1.9954660606
 C         -1.3788460549        5.7037530191       -1.7634760683
 C         -4.3291268916        4.2201193504       -0.1777266205
 C         -4.9685589536        3.0185257210        0.0657620615
 C         -4.2343737681        1.8446346132       -0.0041090820
 C         -4.6104112657        0.4611086047        0.2134527105
 C         -5.8217343812       -0.1186884612        0.5573905993
 C         -5.8852365283       -1.4920225305        0.7063467798
 C         -4.7617567844       -2.2996952913        0.5210293208
 C         -4.8561561383       -3.7560257483        0.6928753903
 C         -5.9657422447       -4.4594643151        0.2282546488
 C         -6.0508989129       -5.8293923917        0.3916069041
 C         -5.0319098688       -6.5206263714        1.0254803331
 C         -3.9245563145       -5.8322623197        1.4921907691
 C         -3.8354275356       -4.4629887842        1.3257605433
 C         -3.5426919192       -1.7102395502        0.1750078446
 C         -3.4786614862       -0.3459222958        0.0186934934
 C          0.5028142653       -0.7489406154       -0.7211318950
 C          1.8266620620       -1.2612006591       -0.8811221833
 O          2.1082052971       -1.7901159428       -2.1112185266
 C          3.4074814031       -2.1282518953       -2.3651921646
 C          3.7123644154       -2.5274274073       -3.6545250116
 C          5.0129308824       -2.8807886020       -3.9894757297
 C          5.9993917019       -2.8119100021       -3.0308234817
 C          5.6981958780       -2.4072124516       -1.7338440966
 C          4.3995513957       -2.0756080620       -1.3687469506
 H         10.2591932830        1.4783259053        4.6575044222
 H         10.1184059552        1.8144663514        2.9313030007
 H          8.9336656394        2.4761259321        4.0573271992
 H          8.1525890422        0.1657178821        4.5925756303
 H          9.3380417476       -0.4955870398        3.4677254131
 H          8.2389710994        0.7231395897        1.5950154373
 H          7.0511631879        1.3792681503        2.7199038434
 H          7.4807433810       -1.5857598452        2.1449401563
 H          6.2879540594       -0.9266187103        3.2622540639
 H          5.1921809557        0.2852726090        1.3769328835
 H          6.3858817630       -0.3670499288        0.2616164579
 H          4.4345298373       -2.0335806968        1.9278335242
 H          5.6288389931       -2.6904177254        0.8173061531
 H          3.0940399433       -0.4876624483        2.1565712948
 H          1.0581476687        0.9089035125        2.0000038464
 H          0.5708767825       -0.7033766479        2.4547064901
 H         -1.4385009993        0.7271181948        1.6578863777
 H         -1.9059800086        0.2426199647       -1.3353916792
 H         -1.1804700013        3.1122159928       -0.7945358977
 H         -3.3178684407        6.5802975464        0.8581085263
 H         -2.2267141520        8.7405861562        0.4387308483
 H         -0.5814183381        8.9647354781       -1.3869908184
 H         -0.0437055755        7.0116225682       -2.7969356378
 H         -1.1504188284        4.8564435323       -2.3935769125
 H         -4.8951416122        5.1395709051       -0.1423144034
 H         -6.0212156905        2.9979792131        0.3062599487
 H         -6.7005225758        0.4897367754        0.7117841097
 H         -6.8190119669       -1.9517489309        0.9957840812
 H         -6.7555469151       -3.9293877294       -0.2839684480
 H         -6.9148236485       -6.3614922639        0.0205022961
 H         -5.1003123831       -7.5906043966        1.1548392072
 H         -3.1277749776       -6.3652380294        1.9911868373
 H         -2.9769614238       -3.9296734250        1.7076703517
 H         -2.6677836287       -2.3221953817        0.0122622012
 H         -0.1430968754       -0.8421294497       -1.5783112280
 H          2.9162089846       -2.5605477384       -4.3809593393
 H          5.2406967907       -3.1985871013       -4.9945571101
 H          7.0183007403       -3.0709130210       -3.2747544811
 H          6.4998231680       -2.3564150720       -1.0164222045
  85
  -120.468413864100       0.122321838579990      !
 C          7.5708168019       -3.1926510156        4.7081315935
 C          7.8292966929       -1.9372021887        3.8842982468
 C          6.6316123716       -1.5737336127        3.0094069136
 C          6.8995095451       -0.3207448600        2.1785384894
 C          5.6856916157        0.1466690122        1.3785866741
 C          5.2845369066       -0.8425946445        0.2769893291
 N          4.2777288359       -0.3061857128       -0.6036300855
 C          2.9219144111       -0.4922023073       -0.3370171733
 C          2.4588161350       -1.0515202273        0.8486053796
 C          1.0265508382       -1.3370172717        1.1059771618
 C          0.0766489837       -0.8252042717        0.0588498224
 C         -1.2866039124       -0.9650850208        0.3417968095
 C         -2.3838967637       -0.3562518839       -0.4582879798
 C         -2.6002708246        1.0679078975        0.0204430973
 C         -1.7086319867        2.1142090943        0.0253629144
 C         -2.1035436146        3.3449095541        0.5547045088
 C         -1.1631180030        4.4736704979        0.5655980912
 C          0.1904383506        4.2655105658        0.8263862092
 C          1.0775716225        5.3252374457        0.8370026201
 C          0.6306928300        6.6117200394        0.5850711047
 C         -0.7111231745        6.8308197092        0.3219105346
 C         -1.6003251537        5.7725771368        0.3128748805
 C         -3.3919586169        3.4843940109        1.0764002637
 C         -4.2882216453        2.4317332009        1.0785960633
 C         -3.8932908050        1.2131513108        0.5475834483
 C         -4.5939092601       -0.0487242675        0.4111027352
 C         -5.8832549086       -0.4226763313        0.7567812604
 C         -6.2883601465       -1.7218321538        0.5121801423
 C         -5.4322769364       -2.6544355189       -0.0755364425
 C         -5.8934315631       -4.0264148104       -0.3301435806
 C         -5.5704502723       -4.6733801343       -1.5212796209
 C         -6.0116594577       -5.9601430174       -1.7665830148
 C         -6.7777314471       -6.6257828318       -0.8241921107
 C         -7.1008321416       -5.9947842777        0.3655071112
 C         -6.6652997861       -4.7058760803        0.6100648510
 C         -4.1349613289       -2.2702415151       -0.4257510588
 C         -3.7266765505       -0.9794194093       -0.1839173514
 C          0.5853188519       -0.2546987734       -1.0836306846
 C          1.9883756107       -0.0949923295       -1.2954899935
 O          2.3411465478        0.4932690150       -2.4792101499
 C          3.6577695690        0.8168648273       -2.6503498678
 C          3.9858307825        1.5302095231       -3.7897184811
 C          5.3030847220        1.8974195150       -4.0314041156
 C          6.2761032268        1.5605731357       -3.1166639695
 C          5.9500002543        0.8484058608       -1.9665582014
 C          4.6433034929        0.4473457518       -1.7165964719
 H          8.4327562037       -3.4274758954        5.3277181169
 H          6.7091318520       -3.0522155290        5.3571886063
 H          7.3741256264       -4.0423078521        4.0575746545
 H          8.7039380938       -2.0931612705        3.2487079262
 H          8.0523093919       -1.1034160841        4.5539560127
 H          5.7602155511       -1.4048925073        3.6463145579
 H          6.4076555976       -2.4146964535        2.3510324356
 H          7.2045230925        0.4854873705        2.8497438092
 H          7.7315752093       -0.5118330448        1.4965649450
 H          4.8390671812        0.3010065128        2.0496519487
 H          5.9131892755        1.1076996172        0.9130898632
 H          4.8972762770       -1.7639228356        0.7134289633
 H          6.1608853557       -1.1070399175       -0.3199698354
 H          3.1345951503       -1.3015078733        1.6471480606
 H          0.7388464275       -0.9244470325        2.0852684592
 H          0.8734588822       -2.4256211302        1.2056026520
 H         -1.5755377266       -1.4241836407        1.2746970698
 H         -2.1422792631       -0.3757753667       -1.5250415257
 H         -0.7192740349        1.9932663963       -0.3878635424
 H          0.5443401751        3.2674739706        1.0409397285
 H          2.1230520245        5.1475642745        1.0446473271
 H          1.3248553218        7.4389444935        0.5927640805
 H         -1.0654087853        7.8310655018        0.1187561919
 H         -2.6413457999        5.9490093887        0.0846330099
 H         -3.6835257857        4.4298330343        1.5099237822
 H         -5.2774989137        2.5568302662        1.4935455833
 H         -6.5618156659        0.2864612524        1.2073276771
 H         -7.2964333308       -2.0203151453        0.7608205734
 H         -4.9884577097       -4.1526708309       -2.2678569498
 H         -5.7597891337       -6.4453349719       -2.6985039782
 H         -7.1212327636       -7.6314755300       -1.0160449305
 H         -7.6936802571       -6.5107707369        1.1068634068
 H         -6.9067501550       -4.2255128438        1.5472558112
 H         -3.4559194927       -2.9878858034       -0.8629975001
 H         -0.0542683238        0.0885007307       -1.8796571950
 H          3.1960982253        1.7836634693       -4.4786773260
 H          5.5519008163        2.4458706688       -4.9259625436
 H          7.3038638956        1.8460591575       -3.2810214558
 H          6.7385910998        0.6159075342       -1.2711109093
  85
  -120.467765172800       6.157240534745616E-002 !
 C          6.9239094396       -2.4511992764        5.5294896314
 C          7.4520679346       -1.5595549469        4.4127097975
 C          6.3755999731       -1.2502051474        3.3748337490
 C          6.9070491180       -0.3539786501        2.2583370108
 C          5.8304175808        0.0735995997        1.2632762450
 C          5.3233446882       -1.0869934490        0.3988865165
 N          4.3499301387       -0.6566369211       -0.5730296566
 C          2.9924146763       -0.6311950811       -0.2552731215
 C          2.5119773896       -0.9034827690        1.0211939300
 C          1.0672414072       -0.9706020987        1.3482979321
 C          0.1388892313       -0.5968391169        0.2267938866
 C         -1.2258800896       -0.5942725708        0.5348596893
 C         -2.3078097624       -0.1318736623       -0.3721164674
 C         -2.6606181217        1.3060940794       -0.0414321947
 C         -1.8415730337        2.4103817162       -0.0563947590
 C         -2.3660344038        3.6510769613        0.3141106482
 C         -1.5121869102        4.8465165915        0.3059346832
 C         -1.6088523844        5.7981957922        1.3195744128
 C         -0.8033865194        6.9213825956        1.3117858545
 C          0.1105537446        7.1167026698        0.2897491740
 C          0.2159781640        6.1779444192       -0.7230317857
 C         -0.5854544271        5.0518708039       -0.7145073067
 C         -3.7073611739        3.7427074657        0.6943795676
 C         -4.5300198376        2.6321445323        0.7180404686
 C         -4.0043882486        1.4018228007        0.3537143626
 C         -4.6015923280        0.0825716921        0.2880841330
 C         -5.8873642610       -0.3571488092        0.5626820907
 C         -6.1777045479       -1.7010152847        0.4151557529
 C         -5.2106408578       -2.6147491574       -0.0068326779
 C         -5.5526613661       -4.0344752438       -0.1711107498
 C         -5.0745190889       -4.7558273113       -1.2633277775
 C         -5.4042664682       -6.0880009059       -1.4275034610
 C         -6.2123720170       -6.7251455468       -0.5007697386
 C         -6.6894168275       -6.0199629972        0.5915329206
 C         -6.3651350497       -4.6861634689        0.7544149922
 C         -3.9164263729       -2.1652865360       -0.2833112519
 C         -3.6224486315       -0.8301627803       -0.1357873914
 C          0.6691081710       -0.2863227593       -1.0027373196
 C          2.0734437555       -0.3171315966       -1.2574198096
 O          2.4442884406       -0.0084908758       -2.5375634127
 C          3.7815145617        0.1094293790       -2.7923163134
 C          4.1427036463        0.5369884113       -4.0578157219
 C          5.4823761576        0.6859656588       -4.3915420988
 C          6.4463719176        0.4218542820       -3.4441031801
 C          6.0875191858       -0.0032727382       -2.1685761491
 C          4.7548843998       -0.1857409155       -1.8199980799
 H          7.7062781191       -2.6590451022        6.2550682447
 H          6.0971503278       -1.9672454946        6.0451692393
 H          6.5689061423       -3.3974826843        5.1268605432
 H          8.2937017418       -2.0526215995        3.9208922064
 H          7.8207727119       -0.6240573131        4.8394785970
 H          5.5365144933       -0.7525704812        3.8668474861
 H          6.0099154784       -2.1896178490        2.9567679954
 H          7.3396335721        0.5427505882        2.7078866917
 H          7.7075743405       -0.8738533670        1.7266537819
 H          4.9874310385        0.5128711645        1.7995545548
 H          6.2355475412        0.8441743456        0.6044076889
 H          4.8632740897       -1.8544483103        1.0217510674
 H          6.1592710333       -1.5541492525       -0.1270284060
 H          3.1818376327       -1.0786202929        1.8440815314
 H          0.8555258319       -0.3252289196        2.2153381532
 H          0.8085721836       -1.9879355645        1.6885455195
 H         -1.5281111768       -0.8440093372        1.5405461848
 H         -1.9996231478       -0.2221331536       -1.4168474668
 H         -0.8007579288        2.3167908254       -0.3286369397
 H         -2.3063083477        5.6435151050        2.1300099764
 H         -0.8869736049        7.6472136559        2.1077414836
 H          0.7376059025        7.9959215661        0.2828235519
 H          0.9249222868        6.3257177825       -1.5248585424
 H         -0.5091975320        4.3321895288       -1.5164473826
 H         -4.1120110239        4.7089198590        0.9581687729
 H         -5.5643787369        2.7234841852        1.0149497066
 H         -6.6513370972        0.3356467403        0.8831325303
 H         -7.1809681320       -2.0521479503        0.6081777014
 H         -4.4585265864       -4.2597629563       -1.9992917825
 H         -5.0317658422       -6.6314201716       -2.2838351136
 H         -6.4692998572       -7.7661112405       -0.6293827584
 H         -7.3164034926       -6.5127233535        1.3204550104
 H         -6.7270314373       -4.1465679457        1.6176512135
 H         -3.1522939591       -2.8642068024       -0.5911349786
 H          0.0459601676       -0.0229230506       -1.8410694623
 H          3.3596240066        0.7424879511       -4.7700476042
 H          5.7559965571        1.0118040815       -5.3824678444
 H          7.4925968422        0.5427590242       -3.6797267620
 H          6.8727426537       -0.1876748874       -1.4550640033
  85
  -120.467592992000       5.131653247180862E-002 !
 C          7.7762271771       -3.6328853360        4.1777342101
 C          7.9906217728       -2.2896316515        3.4915467158
 C          6.7525372100       -1.8425865700        2.7175576914
 C          6.9775256152       -0.5061376816        2.0140940616
 C          5.7297716845        0.0253400478        1.3121314436
 C          5.2991572514       -0.8509707382        0.1288939599
 N          4.2639517967       -0.2396260239       -0.6656614559
 C          2.9175791198       -0.4650294558       -0.3828602370
 C          2.4898215749       -1.1276969361        0.7621964692
 C          1.0657736253       -1.4375295991        1.0376222651
 C          0.0858013153       -0.8555754327        0.0575014474
 C         -1.2703698267       -1.0188898858        0.3607939195
 C         -2.3770384980       -0.3687632970       -0.3893609992
 C         -2.5932253225        1.0466348393        0.1189537583
 C         -1.6919558301        2.0823107949        0.1815575312
 C         -2.1020178324        3.3146544784        0.6966826067
 C         -1.1528250951        4.4338963357        0.7585823421
 C         -0.2347295502        4.6423232524       -0.2697597436
 C          0.6612922121        5.6929331854       -0.2139756973
 C          0.6597881084        6.5537626243        0.8710686530
 C         -0.2451862245        6.3554908604        1.9004990136
 C         -1.1439264512        5.3067839184        1.8451332300
 C         -3.4161336811        3.4659358606        1.1457235354
 C         -4.3197936487        2.4209221094        1.0986228078
 C         -3.9081257219        1.1998869493        0.5858460603
 C         -4.6106838670       -0.0566849953        0.4162597785
 C         -5.9137799482       -0.4244824778        0.7136126355
 C         -6.3167769942       -1.7204512981        0.4498537278
 C         -5.4451304884       -2.6559100760       -0.1098957871
 C         -5.9065405234       -4.0234121987       -0.3871544828
 C         -5.5449647831       -4.6689697654       -1.5678336844
 C         -5.9890742951       -5.9503634518       -1.8350298006
 C         -6.7965155467       -6.6121943298       -0.9251439465
 C         -7.1579569160       -5.9828384004        0.2542943694
 C         -6.7196641654       -4.6992584581        0.5204183312
 C         -4.1340136648       -2.2776522048       -0.4119540657
 C         -3.7271230636       -0.9903392852       -0.1491230584
 C          0.5617640590       -0.1979181987       -1.0523274432
 C          1.9566453218       -0.0013367448       -1.2820971635
 O          2.2731141759        0.6945414727       -2.4170040566
 C          3.5794089096        1.0605183311       -2.5826430831
 C          3.8689145552        1.8868946036       -3.6539263487
 C          5.1738535254        2.3010135400       -3.8863984302
 C          6.1732618625        1.8951276540       -3.0300600454
 C          5.8857879617        1.0692459557       -1.9477371166
 C          4.5918675931        0.6224713483       -1.7094410355
 H          7.5473622331       -4.4036085203        3.4447721522
 H          8.6689037516       -3.9313188804        4.7216389262
 H          6.9490806434       -3.5738515625        4.8818229526
 H          8.8361715281       -2.3643759586        2.8040240771
 H          8.2398007915       -1.5347847595        4.2405938678
 H          5.9114477288       -1.7496281219        3.4082402508
 H          6.5006755220       -2.6096816991        1.9837054017
 H          7.2999964567        0.2296216964        2.7542284694
 H          7.7846453660       -0.6144684835        1.2856797662
 H          4.9077493310        0.0979447083        2.0260028306
 H          5.9297911326        1.0326906438        0.9419547885
 H          4.9292374539       -1.8141137158        0.4823754800
 H          6.1587403520       -1.0474023660       -0.5168899734
 H          3.1893322276       -1.4389412964        1.5175591317
 H          0.8049470121       -1.0983681033        2.0519155377
 H          0.9187366176       -2.5311946695        1.0619707514
 H         -1.5416438228       -1.5405856085        1.2653826562
 H         -2.1470593406       -0.3474289088       -1.4599999094
 H         -0.6715587454        1.9424068729       -0.1402883788
 H         -0.2378404891        3.9865300505       -1.1279227195
 H          1.3634656320        5.8421845470       -1.0215375289
 H          1.3604405584        7.3744343083        0.9142575357
 H         -0.2488713981        7.0207591314        2.7518814637
 H         -1.8333476599        5.1480908788        2.6615796262
 H         -3.7351844395        4.4267253735        1.5224220946
 H         -5.3306241182        2.5555858031        1.4542904475
 H         -6.6045797980        0.2871474810        1.1409721478
 H         -7.3350772223       -2.0138201639        0.6599271778
 H         -4.9300734134       -4.1513314785       -2.2898050827
 H         -5.7061442953       -6.4348311151       -2.7584042595
 H         -7.1420094289       -7.6138095679       -1.1339386071
 H         -7.7832149546       -6.4958424120        0.9706261335
 H         -6.9909428176       -4.2205590946        1.4502179947
 H         -3.4441103848       -2.9966997012       -0.8294715435
 H         -0.1000357025        0.1956664761       -1.8056481089
 H          3.0599170150        2.1895351054       -4.2993893836
 H          5.3927007310        2.9389990121       -4.7278318406
 H          7.1917578989        2.2154937314       -3.1874903210
 H          6.6936109300        0.7846787568       -1.2951327511
  85
  -120.467530786500       4.804737154711358E-002 !
 C          7.4216071249        0.4539031826        5.5248681292
 C          7.8798891285        0.2912278930        4.0809599390
 C          6.7004986014        0.1095642517        3.1282649012
 C          7.1621675776       -0.0471272163        1.6809541971
 C          6.0072084413       -0.1347330007        0.6852453169
 C          5.2257551300       -1.4497348749        0.7957808300
 N          4.1858695891       -1.5549362670       -0.1965767114
 C          2.9053492536       -1.0663239611        0.0608510879
 C          2.5902874077       -0.3507041984        1.2116316605
 C          1.2114670422        0.0832166827        1.5414249857
 C          0.2089282047       -0.0895289146        0.4331844470
 C         -1.0478415023        0.4850302512        0.6486903953
 C         -2.1392478730        0.5866901941       -0.3541323164
 C         -2.7887982321        1.9497229900       -0.3330269373
 C         -2.2062482260        3.1728001402       -0.5695269095
 C         -2.9855505027        4.3288646649       -0.4785537342
 C         -2.3854041601        5.6466185122       -0.7298296047
 C         -2.7100139661        6.7421247366        0.0677298234
 C         -2.1424640798        7.9798842864       -0.1699733579
 C         -1.2446024700        8.1466537925       -1.2110994312
 C         -0.9152281315        7.0653975303       -2.0113121011
 C         -1.4777319336        5.8257226910       -1.7717909644
 C         -4.3377942720        4.2198778882       -0.1490343187
 C         -4.9269461841        2.9919911891        0.0903170994
 C         -4.1476229146        1.8488496775        0.0032219981
 C         -4.4687150519        0.4491527735        0.2050948546
 C         -5.6583007246       -0.1805160022        0.5367387836
 C         -5.6722464568       -1.5578413641        0.6572466623
 C         -4.5196666490       -2.3200136699        0.4581263555
 C         -4.5663976368       -3.7826894222        0.5928261314
 C         -5.6470804752       -4.5087296299        0.0959562704
 C         -5.6913065816       -5.8842031640        0.2249289683
 C         -4.6593564559       -6.5583445051        0.8562562624
 C         -3.5798911719       -5.8474364611        1.3535891426
 C         -3.5313058275       -4.4723628621        1.2208530111
 C         -3.3213751935       -1.6802858477        0.1298620329
 C         -3.3075193981       -0.3116954869       -0.0015562945
 C          0.5758760735       -0.7856261257       -0.6933650879
 C          1.8970165784       -1.2970910990       -0.8753036262
 O          2.1080187279       -1.9778228982       -2.0434899341
 C          3.3978210777       -2.3064638474       -2.3525162027
 C          3.6200717067       -2.8716917522       -3.5957497535
 C          4.9053400674       -3.2246364572       -3.9854292291
 C          5.9582558592       -2.9885934542       -3.1295751087
 C          5.7399539625       -2.4170032724       -1.8797338249
 C          4.4596308052       -2.0814211179       -1.4569527106
 H          8.2754057861        0.5882462961        6.1837563705
 H          6.7726905462        1.3210878471        5.6237131153
 H          6.8700298828       -0.4242681815        5.8526238386
 H          8.5405276299       -0.5752578549        4.0046125939
 H          8.4537270480        1.1709446440        3.7809878900
 H          6.0422037316        0.9781954881        3.2036683560
 H          6.1315493029       -0.7695219983        3.4355373657
 H          7.7832205105        0.8124279630        1.4187206458
 H          7.7847503878       -0.9407383787        1.5941740556
 H          5.3232844540        0.7013636151        0.8407653175
 H          6.4003788443       -0.0504537872       -0.3298022409
 H          4.7639990917       -1.5372941353        1.7798213552
 H          5.9053416644       -2.2972410931        0.6787319879
 H          3.3474317096       -0.0810703739        1.9259903410
 H          1.2225731276        1.1364789257        1.8585594761
 H          0.8438809801       -0.4713166420        2.4229757735
 H         -1.2595998089        0.9157082162        1.6157562415
 H         -1.7620486338        0.3504042419       -1.3518173756
 H         -1.1536744760        3.2426324913       -0.8026777757
 H         -3.3965182280        6.6149547519        0.8922370343
 H         -2.4006847297        8.8186688796        0.4601213752
 H         -0.8047966025        9.1148997250       -1.3988795918
 H         -0.2191039341        7.1899435702       -2.8281677557
 H         -1.2298283419        4.9901655701       -2.4102763749
 H         -4.9388646918        5.1162382640       -0.1011526362
 H         -5.9757336834        2.9277097379        0.3397224045
 H         -6.5590128353        0.3925514856        0.6998913337
 H         -6.5893152927       -2.0576593037        0.9332537611
 H         -6.4467488049       -3.9907902445       -0.4134187224
 H         -6.5329950117       -6.4336579647       -0.1711823933
 H         -4.6956209821       -7.6327753943        0.9587972283
 H         -2.7730014917       -6.3675178675        1.8494106826
 H         -2.6941686735       -3.9217832114        1.6251063974
 H         -2.4244196951       -2.2572028496       -0.0404075208
 H         -0.1206241204       -0.9849476458       -1.4907623582
 H          2.7724571320       -3.0316678385       -4.2427620203
 H          5.0692386172       -3.6720581327       -4.9528737695
 H          6.9661261135       -3.2441083096       -3.4188504602
 H          6.5922694278       -2.2394192896       -1.2458815794
