  85
       -121.03648736
 C          2.8080018035       -1.7887803213        0.8718097340
 C          3.6878229337       -2.3115862118       -0.2585775112
 C          4.2190664294       -1.2010491977       -1.1648052449
 C          5.1606624144       -0.2434234945       -0.4379951178
 C          5.8169890236        0.7844037549       -1.3608972020
 C          4.8091327754        1.7384953129       -2.0214177692
 N          3.9763987395        2.4145336189       -1.0514694826
 C          2.6911213310        1.9417618248       -0.7734180523
 C          1.8933667400        1.3478851902       -1.7502201308
 C          0.5361126339        0.8092287956       -1.4855441287
 C          0.0985546622        0.8859850341       -0.0510928074
 C         -1.1069781189        0.3011077947        0.3382446854
 C         -2.0083017383       -0.5060891777       -0.5242387308
 C         -3.4641287631       -0.2522919994       -0.2161988767
 C         -4.1681004580        0.9208586356       -0.3485630801
 C         -5.5202302392        0.9495817565        0.0039723926
 C         -6.2878772721        2.1958819621       -0.1237281159
 C         -7.5928112952        2.1861255294       -0.6117456187
 C         -8.3084714365        3.3627018922       -0.7318120346
 C         -7.7357537334        4.5680826776       -0.3615355472
 C         -6.4401288632        4.5896826033        0.1273570458
 C         -5.7208544557        3.4151285467        0.2426239614
 C         -6.1280624457       -0.2117661769        0.4829751575
 C         -5.4204920264       -1.3912296409        0.6278666598
 C         -4.0784995800       -1.4123693747        0.2806730541
 C         -3.0905066869       -2.4726703676        0.3282213481
 C         -3.1758842618       -3.7882438085        0.7577387517
 C         -2.0462201805       -4.5838115078        0.7018467204
 C         -0.8346248381       -4.0927141076        0.2122489608
 C          0.3546881966       -4.9539614193        0.1621129593
 C          1.1847947531       -4.9534143175       -0.9565468978
 C          2.3075343716       -5.7589009837       -1.0011973877
 C          2.6245765794       -6.5719231674        0.0739820555
 C          1.8067676479       -6.5801234668        1.1916450301
 C          0.6793246932       -5.7815767250        1.2345438546
 C         -0.7537276192       -2.7687815624       -0.2239081718
 C         -1.8730301053       -1.9728224786       -0.1613303622
 C          0.8933353260        1.5517514062        0.8565413311
 C          2.1621721172        2.1022792382        0.5057061498
 O          2.8181878703        2.7690434180        1.5041070680
 C          3.9892651421        3.3907672406        1.1698045748
 C          4.5754623268        4.1910303754        2.1360046412
 C          5.7699397137        4.8461146730        1.8715488623
 C          6.3628242557        4.7012506406        0.6352716523
 C          5.7772712214        3.8984399264       -0.3364659545
 C          4.5881095101        3.2230460876       -0.0903897941
 H          3.3968495477       -1.2489347260        1.6084086587
 H          2.0470285853       -1.1149791196        0.4875514724
 H          2.3144795076       -2.6179656704        1.3742189936
 H          3.1030577738       -3.0058536219       -0.8641628476
 H          4.5240639838       -2.8732638565        0.1633701649
 H          3.3677832805       -0.6453873324       -1.5594531896
 H          4.7518515818       -1.6544600665       -2.0051229887
 H          4.6117707286        0.2789831676        0.3442285155
 H          5.9506127887       -0.8227103137        0.0459406793
 H          6.5301579162        1.3686301598       -0.7768860380
 H          6.3674047430        0.2729353886       -2.1533302118
 H          4.1701996919        1.1692878732       -2.6893470617
 H          5.3438084294        2.4773702312       -2.6250855150
 H          2.2133904866        1.3184653845       -2.7785963694
 H          0.4851781679       -0.2372125966       -1.8233978075
 H         -0.1958952006        1.3474468379       -2.1100676468
 H         -1.3904253714        0.3641827106        1.3778110733
 H         -1.7966217711       -0.3440862793       -1.5830044656
 H         -3.6902188409        1.8080571515       -0.7375758039
 H         -8.0391950071        1.2512716290       -0.9184820833
 H         -9.3171933326        3.3401991945       -1.1179387526
 H         -8.2964443393        5.4863885128       -0.4532839390
 H         -5.9890203342        5.5259831227        0.4225242852
 H         -4.7168475073        3.4355770143        0.6412541856
 H         -7.1688508151       -0.1777334082        0.7702994233
 H         -5.9056867006       -2.2769496511        1.0105053459
 H         -4.1071190408       -4.1860579747        1.1328647191
 H         -2.1020057232       -5.6132958624        1.0244118206
 H          0.9312452082       -4.3329071808       -1.8041571091
 H          2.9387137747       -5.7535375248       -1.8783620701
 H          3.5043326682       -7.1970232777        0.0402551209
 H          2.0502123520       -7.2105434330        2.0344681903
 H          0.0527515652       -5.7799215701        2.1145904053
 H          0.1882126027       -2.3781493127       -0.5764399699
 H          0.5932034018        1.6378903344        1.8880729875
 H          4.0867387717        4.2776721241        3.0933707701
 H          6.2239300465        5.4613091907        2.6320919860
 H          7.2897236013        5.2065333225        0.4112361571
 H          6.2614994216        3.8090005930       -1.2947569170
