91
 energy: -150.754516829724 gnorm: 0.000071242746 xtb: 6.7.1 (edcfbbe)
O            9.14326482967691       -2.33287976409821        0.12857550151328
S            8.80021491973362       -1.07464341363367       -0.48337157771621
O            9.29975321967744       -0.78873714057821       -1.80396787773778
C            9.26449783755461        0.25802120532649        0.61734149038266
C            9.28832371024554        0.03084010686280        1.98255664086072
C            9.56554545918295        1.08118117562854        2.83863371817278
C            9.80886672612047        2.34759023317098        2.32525846918570
C            9.78236710769513        2.56467666841792        0.95476630046606
C            9.50546492939651        1.51700889450627        0.09516807584945
C            7.02558559455127       -0.91002764437005       -0.49353542863907
C            6.42466731564735       -0.02822331943793       -1.38765378736701
C            5.06239053815355        0.16199247936909       -1.34738781734929
C            4.29505752672511       -0.52656961731919       -0.40086025777183
N            2.88452528891370       -0.33714898110523       -0.36149820650966
C            2.34814235068994        0.46514134773303        0.62174749172937
C            3.18475054468433        1.10550921464005        1.55146271749965
C            2.65681195579364        1.89695711131353        2.54249518900217
C            1.27711618109868        2.08130229505039        2.63645870787477
C            0.44709112455090        1.47390071761796        1.71395940522924
C            0.95621602692384        0.67150089202914        0.70565386474791
C            0.00077346700537        0.05686278006034       -0.28862533106480
C            0.70507901636995       -0.79447849988131       -1.31810082510726
C           -0.05072913591778       -1.43175760876544       -2.28904769166569
C            0.53908935496404       -2.23728283800381       -3.24399844180838
C            1.92110512136290       -2.42603774967702       -3.22263685866144
C            2.69117728870827       -1.80434764413486       -2.26995843405945
C            2.10400591745932       -0.96586870706022       -1.30729263309233
C           -0.95947475530829       -0.83555685453779        0.46053346034105
C           -0.45519270653506       -1.91042243313898        1.17482708024679
C           -1.28980222691076       -2.77179497405250        1.86057922330618
C           -2.66894763268668       -2.56499937229850        1.82264842226643
C           -3.19215520447222       -1.50593686039839        1.12118312152275
C           -2.35109483540266       -0.61295864346916        0.43627478625347
N           -2.88313510963626        0.45249232360904       -0.25603441605009
C           -4.29444163281525        0.64343925739604       -0.24521195446273
C           -5.05778382134305        0.24405350636077       -1.34789433647313
C           -6.42069245299982        0.43467601903966       -1.33674609969693
C           -7.02545579696561        1.03113873140579       -0.23392758558893
S           -8.80086749045019        1.18014737962604       -0.18118539183916
O           -9.29964776601782        1.25648155360740       -1.53048089996011
O           -9.14897626532067        2.22697306387315        0.74522975512342
C           -9.25856088342982       -0.40065338558835        0.52215825891115
C           -9.28073623832815       -0.54789920773442        1.89834003471456
C           -9.55208364295565       -1.79049817480096        2.44171169406964
C           -9.79143357404782       -2.87394014600857        1.60780114997690
C           -9.76679656244197       -2.71551425821236        0.22923907199616
C           -9.49556195309426       -1.47458159125187       -0.31824569070565
C           -6.27045054477753        1.42792321387567        0.86627650109750
C           -4.90729913063944        1.23872252991818        0.86284242817011
C           -2.09862335605789        1.34283815501181       -0.95614401612073
C           -2.68324876664755        2.43391700606334       -1.62091276205375
C           -1.90892891021519        3.32153306574068       -2.32788227739939
C           -0.52558832881865        3.15358594700369       -2.39152892449535
C            0.06107829302551        2.09405296404805       -1.72673390553384
C           -0.69902227385691        1.18591522786670       -1.00726112719154
C            4.90436540049941       -1.40836759856476        0.49895893633425
C            6.26697582397768       -1.59479108622122        0.45185231900074
H            9.11052097247366       -0.96873833860462        2.34674913440152
H            9.59619081170980        0.91566335429497        3.90527172405801
H           10.02673616743985        3.16616126434334        2.99493394479243
H            9.98119427020519        3.54983858811491        0.55989906771861
H            9.49287006023531        1.64651486490947       -0.97555839830825
H            7.04408698650896        0.47422375105991       -2.11276541285998
H            4.57345282398857        0.83338655300959       -2.03751492825783
H            4.25311637112375        0.97509015721683        1.47768294804567
H            3.31508199780388        2.37923496100689        3.24819183959824
H            0.86256032715160        2.69890911127551        3.41703688493653
H           -0.62148408016795        1.62296122557626        1.77046515316406
H           -1.12193956272015       -1.29107015794464       -2.29025499752769
H           -0.06475698166776       -2.72171204822921       -3.99456726661376
H            2.39007827148855       -3.06485299993857       -3.95446831545958
H            3.75781247997356       -1.96294023891695       -2.25263030201963
H            0.61316347088756       -2.07074047119893        1.18845667440481
H           -0.87896320056030       -3.60073648571388        2.41437576512118
H           -3.33045693074137       -3.23961789348529        2.34343037921332
H           -4.26002749651606       -1.35593220500309        1.08777039518900
H           -4.56572144282510       -0.20721837595786       -2.19659250335920
H           -7.03776299687019        0.15254141606806       -2.17434639160976
H           -9.10639325000848        0.31818358297618        2.51712840892766
H           -9.58118712176590       -1.91713681709919        3.51370537360073
H          -10.00468498516701       -3.84303245357512        2.03368441298485
H           -9.96255025287790       -3.55959653635732       -0.41512059988586
H           -9.48422976419814       -1.31223692338226       -1.38450530928023
H           -6.77388303791569        1.90114857260722        1.69368090369058
H           -4.30021635202589        1.54766950742741        1.70074441881435
H           -3.75131332023056        2.57421069281927       -1.56772581326157
H           -2.37565976333672        4.15260581132782       -2.83294412922952
H            0.08171475122052        3.84811572219333       -2.94964631708401
H            1.13301010958817        1.96343008542263       -1.76162541331131
H            4.29463718941505       -1.93694652231330        1.21655575704388
H            6.76759212037015       -2.28094370544866        1.11561587486654
