91
 energy: -150.853053834030 gnorm: 0.000068768430 xtb: 6.7.1 (edcfbbe)
O            9.12069315524802       -2.28427807338781        0.69160733858843
S            8.79986528792282       -1.21744544620555       -0.21839490483154
O            9.27080345256327       -1.30198459133669       -1.57491093382512
C            9.34720426409780        0.34177413891814        0.48738487110143
C            9.17583568647343        0.55384696022882        1.84166260755364
C            9.55755092402553        1.76776566168480        2.38768668019203
C           10.10001328824690        2.75060201268433        1.57355145297541
C           10.26770936916218        2.52541566040770        0.21626857296755
C            9.88617773669214        1.31227103073523       -0.33333863517283
C            7.01461154460164       -1.00682476701842       -0.23805478272030
C            6.44861094774862       -0.19616916326223       -1.20385646029948
C            5.08129790653927        0.00848656113697       -1.20163497156851
C            4.29031677260381       -0.60202225264081       -0.23056934147169
N            2.88973505755008       -0.39470901547889       -0.22710179250818
C            2.32311741852528        0.37787989717174        0.78032837668699
C            3.13046313947850        0.98883171748601        1.74366904283628
C            2.57598204779713        1.75269852335123        2.75048480508383
C            1.20551567613333        1.93495757906246        2.81588319972991
C            0.40475979285623        1.35798543817644        1.84894049399961
C            0.94342367827237        0.58755062815111        0.82977819681032
C            0.00047391424081        0.02086421398318       -0.21090210602940
C            0.73349709855037       -0.79036388467893       -1.25933786254822
C           -0.01217568710519       -1.37833324414143       -2.26990133766018
C            0.58278810842539       -2.15705454969414       -3.24371253118309
C            1.95011156002809       -2.36669801016334       -3.19509373415346
C            2.70880979450326       -1.78939250940578       -2.19730432310544
C            2.11654474566586       -0.97740302258599       -1.22663426449517
C           -0.98620858491912       -0.89513694468947        0.48269518316423
C           -0.48840268847062       -1.99700606931010        1.16130714806406
C           -1.32860745571646       -2.89716003951839        1.78803794563170
C           -2.69682812387638       -2.70066532049748        1.71778733429767
C           -3.21100172917411       -1.60951120799912        1.04718832680513
C           -2.36515367834593       -0.67921511466907        0.43711787787620
N           -2.89113602479085        0.42053821450696       -0.23161733307994
C           -4.29427684500357        0.60693301539711       -0.25595078290955
C           -4.99898147931467        0.41943879988339       -1.44247628292880
C           -6.36963411754969        0.60245718506178       -1.46494626235380
C           -7.02424607731045        0.96981774697306       -0.30520185231964
S           -8.81275635554386        1.15084250951207       -0.31085571852637
O           -9.26153147011863        1.18193902009701       -1.67712182708038
O           -9.17018725815238        2.23971256900334        0.55854988826948
C           -9.34124558280791       -0.39073953640704        0.44640657362284
C           -9.74574676592941       -0.40025430064170        1.76639497799846
C          -10.11258315675076       -1.60129678378763        2.35139526477911
C          -10.06434359252268       -2.77199377884237        1.61092985429028
C           -9.65646352103839       -2.74950958448916        0.28574210303201
C           -9.28991612477458       -1.55057851684417       -0.30226044972893
C           -6.33790038637115        1.15916785075555        0.87948960483858
C           -4.96712795759785        0.98168219147693        0.90523063897193
C           -2.07520560911228        1.34400863258786       -0.87824971551195
C           -2.62884218335369        2.47235099503823       -1.48875124933061
C           -1.82774511638878        3.39035537656496       -2.13679373673569
C           -0.45591807901006        3.21168382402066       -2.18297313737874
C            0.09966938166774        2.11317575197059       -1.55583773185002
C           -0.68903381731185        1.18031066623973       -0.89956389448846
C            4.87405734043714       -1.41893168691503        0.73448813068946
C            6.24267976362977       -1.61756135782160        0.73130863474361
H            8.76464363075885       -0.23659802408533        2.44972713165700
H            9.43533951888225        1.94722667171720        3.44512218779606
H           10.39866350383189        3.69602434595626        2.00138555104431
H           10.69665160339556        3.29184826038597       -0.41129950950214
H           10.01203979625414        1.09464492605891       -1.38242924175069
H            7.08326979173516        0.25310817291448       -1.95112872656242
H            4.61528860972774        0.63366169308293       -1.94848967115130
H            4.20249864575303        0.87072032536602        1.69877777306302
H            3.22219078829611        2.21055997064300        3.48445238402843
H            0.76776541129161        2.52847661747351        3.60329402403443
H           -0.66509692588247        1.50701946319669        1.87452783836911
H           -1.08101807100566       -1.22054750706242       -2.28312949738420
H           -0.01342708967854       -2.60374103256401       -4.02406697237442
H            2.43321273350115       -2.98699710949334       -3.93489385208444
H            3.77100103429141       -1.97700160927995       -2.16629830881688
H            0.58117317342084       -2.14732659684938        1.18958448578206
H           -0.92243950235047       -3.74706290436068        2.31394811481149
H           -3.37291135367476       -3.40209070021896        2.18349118641342
H           -4.28126934505227       -1.48143281828656        0.98924505416077
H           -4.46503372568746        0.13732732638823       -2.33756858517723
H           -6.94389941819374        0.47813171019603       -2.36949259333628
H           -9.78202539222748        0.53331448026406        2.30576357613776
H          -10.43730183605453       -1.62401656471087        3.38063378992067
H          -10.35129357521992       -3.70766880081116        2.06727619733022
H           -9.62699355369735       -3.66382243529653       -0.28736153610312
H           -8.98253488359715       -1.49673808637622       -1.33478771001736
H           -6.88227133902053        1.46466919524962        1.75892398073140
H           -4.40813977369547        1.13004360664873        1.81700543344554
H           -3.69461412287477        2.63662335094635       -1.44910916426256
H           -2.28131620065420        4.25157860900777       -2.60373075404924
H            0.17350987319088        3.92504310317406       -2.69181831327201
H            1.17052848772385        1.96925821316916       -1.56683825987671
H            4.24947788144564       -1.89038638091943        1.47845590444247
H            6.72534548191938       -2.25607305667111        1.45438383507647
