91
 energy: -150.754522225925 gnorm: 0.000098825504 xtb: 6.7.1 (edcfbbe)
O            9.11715862551558       -2.34285848391814        0.10541277546554
S            8.79641486969259       -1.04281768098094       -0.42593936465294
O            9.33332201920611       -0.66806827950343       -1.70911080163929
C            9.23559486232133        0.20586087047610        0.77864798430597
C            9.24497727490024       -0.12347067984414        2.12305477633657
C            9.50302979566664        0.86134303027096        3.05931689033852
C            9.74172213077434        2.16464132483986        2.64596833979345
C            9.72977190431883        2.48433408316738        1.29543168923934
C            9.47213444481071        1.50249429586555        0.35590877383954
C            7.02340392403995       -0.86650562470566       -0.47376871149953
C            6.44990715608405        0.06154295863499       -1.33845815084403
C            5.08788859157478        0.25815620176487       -1.32323192829465
C            4.29387872196190       -0.47099292925792       -0.43103631615412
N            2.88304557711870       -0.27547361840845       -0.41597558258340
C            2.33374891566251        0.52200719354409        0.56338922865539
C            3.15896134170683        1.15928322086595        1.50530130071150
C            2.61891796573503        1.95004181984029        2.49021390132481
C            1.23797911144191        2.13469602146562        2.56671974208172
C            0.41887411597171        1.52514593447703        1.63588029719491
C            0.94027047242056        0.72417230647628        0.63278797080050
C           -0.00351994088882        0.09690028265122       -0.36473739024247
C            0.71680367398969       -0.73246222267345       -1.40111672554445
C           -0.02475658684921       -1.36206283080333       -2.38789895790809
C            0.58052706030322       -2.14895811872805       -3.34869191971509
C            1.96420439365980       -2.32511695382289       -3.31885688860877
C            2.72034820793836       -1.71162582707135       -2.34991535408116
C            2.11686196024219       -0.89460457023266       -1.37901104254899
C           -0.93970094979316       -0.82165898320929        0.38404771742800
C           -0.40917843282248       -1.88872026662712        1.09121144820947
C           -1.22136098501369       -2.76675638921605        1.78248432447938
C           -2.60430046255909       -2.58253136095336        1.76293567450610
C           -3.15346539542870       -1.53175883452660        1.06889195978550
C           -2.33580934028457       -0.62688129424755        0.37188213174359
N           -2.89480076093025        0.42692157546589       -0.31599589090746
C           -4.31073135435062        0.58733269671194       -0.29454290024220
C           -5.08248240294582        0.08347153123381       -1.34684216307868
C           -6.44944952604646        0.24317635549959       -1.32453059797443
C           -7.04903214008182        0.91189849910089       -0.26125601688530
S           -8.82652883683904        1.02228311930059       -0.18281183883973
O           -9.35485737173707        0.93133687239143       -1.51985914152509
O           -9.18418149942611        2.15902587979937        0.62661903671590
C           -9.22503887204967       -0.47796671862345        0.70794516442324
C           -9.25168713250012       -0.45755081284600        2.09173539841470
C           -9.47595989199393       -1.63505096992412        2.78184700888237
C           -9.66420112701179       -2.82085135586920        2.08560771556257
C           -9.63559822940071       -2.83038778375406        0.69797820871642
C           -9.41140929263378       -1.65512670909121        0.00403598714084
C           -6.28497035120568        1.41338759264967        0.78868013965277
C           -4.91773939786925        1.25579651066537        0.77384756265889
C           -2.13533093673702        1.33422838060857       -1.02075606632329
C           -2.75061713405350        2.40475896801307       -1.69117396080213
C           -2.00072878767948        3.31224657599777       -2.39917000165818
C           -0.61296233858574        3.18379484275504       -2.45970229024459
C            0.00255468190041        2.13999121416971       -1.79578762108040
C           -0.73243313650723        1.21221867249141       -1.07554088409705
C            4.87526591634751       -1.39928510369000        0.43957029866878
C            6.23773541374525       -1.59197497641595        0.41755336103033
H            9.07145002281629       -1.14908348976389        2.40837207326791
H            9.52234432840593        0.61598441921542        4.11073199675382
H            9.94457442508928        2.93200619111015        3.37808064496010
H            9.92485733291464        3.49799194826348        0.97850834279487
H            9.47141368844812        1.71260969689487       -0.70202191175150
H            7.09035132789661        0.59438304113625       -2.02246456280925
H            4.61978504727258        0.96519248126499       -1.99182166809233
H            4.22794260926959        1.02606868361578        1.44552079921819
H            3.26815052684115        2.43114759114789        3.20501243611766
H            0.81399925750646        2.75271889470811        3.34189921014716
H           -0.65061807977243        1.67126776836178        1.68177910239699
H           -1.09699861099543       -1.22982118556731       -2.39727155157200
H           -0.01245572902495       -2.62792157719724       -4.11133364373817
H            2.44516853880473       -2.94724660313638       -4.05723995421119
H            3.78861269953278       -1.85838691787186       -2.32672071509757
H            0.66200908382321       -2.02934145734293        1.09540744107694
H           -0.79013829971024       -3.59004375871721        2.32921080764706
H           -3.24769666265981       -3.26739440652382        2.29291231111062
H           -4.22371654047934       -1.39585020579454        1.05200682741799
H           -4.59433866681189       -0.42271557637811       -2.16627125742491
H           -7.07442438383573       -0.11849432152884       -2.12490315901306
H           -9.11793470634785        0.48411138169344        2.60042469590340
H           -9.50812861658535       -1.63134993396353        3.86119613318686
H           -9.84077354973753       -3.73900597233641        2.62580088575679
H           -9.79155991511246       -3.75405689403948        0.16084418737349
H           -9.39854750275368       -1.62387502368126       -1.07403543352669
H           -6.78490685853934        1.93922893793332        1.58585086844297
H           -4.30372019381313        1.64413550221973        1.57269899083123
H           -3.82289717058142        2.51124409647040       -1.64275752008005
H           -2.49006910965687        4.12765001862032       -2.90837057184936
H           -0.02475230783437        3.89494654362919       -3.01733447183923
H            1.07746185055561        2.03706941132736       -1.83251492450264
H            4.24491080433316       -1.95778142568673        1.11544249569024
H            6.71760067471808       -2.31273076680590        1.05957950651912
