49
 energy: -81.453488492493 gnorm: 0.000065774895 xtb: 6.7.1 (edcfbbe)
C           -6.97990834753010        2.40256942448828        0.75769439885384
C           -6.80177458848974        1.24707684211257        1.50244651095196
C           -5.71153523014487        0.42902797062487        1.27093866376717
C           -4.78960323953995        0.76801000936933        0.28302825040220
N           -3.68210748929405       -0.05974869234726        0.04255467271650
C           -3.73479622974352       -1.42642188452931       -0.18156719195951
C           -4.83612474523198       -2.26413433867917       -0.26015386675778
C           -4.60658523666009       -3.60707637856240       -0.52300994336430
C           -3.31944566536812       -4.09718283870649       -0.71318568446581
C           -2.21674416617391       -3.25805473119015       -0.65874052870160
C           -2.42317298717300       -1.91209562690212       -0.39525195419782
C           -1.54558393483554       -0.77517578450069       -0.28823562506908
C           -0.17727512308138       -0.61880995072768       -0.38268464950619
C            0.37971830477912        0.65303793022598       -0.20003595255852
C            1.82063280176419        0.84294292468819       -0.28064670812075
C            2.32391468304927        1.99979482459176       -0.92358796890127
N            3.63819875181507        2.25938234279316       -1.04479865480056
C            4.47034207480099        1.37909293408280       -0.57463117598301
O            5.81183584962036        1.55675825361326       -0.55678363975399
C            6.33120646020244        0.43350406460860        0.02411465583103
N            7.60748575308187        0.25937097788026        0.19728503554796
C            7.98291810056341       -0.89500068006686        0.79278148009863
C            7.07303550343438       -1.85177823646943        1.22187722978566
C            5.71527188711055       -1.66955013382504        1.04271862974337
C            5.30156637100544       -0.47188651410123        0.41400087152453
C            4.09654787988925        0.12969461564662        0.02415333463315
C            2.71417890107886       -0.10972451040695        0.18838313519715
C           -0.46157547222928        1.74979628879160        0.07206675996957
C           -1.82794674508009        1.61321355894020        0.17600783074025
C           -2.37770824478991        0.34754961123865       -0.02165168038212
C           -4.96883999344662        1.92875960806138       -0.46622597253650
C           -6.06154588208597        2.74048378679956       -0.22405801045127
H           -7.83207969612668        3.03869116621211        0.94245955846586
H           -7.51087337741312        0.98452936452856        2.27302576512278
H           -5.55488230643347       -0.45834680483028        1.86543461571803
H           -5.83949453891872       -1.88855501812484       -0.13416834272322
H           -5.44612207103751       -4.28263793472744       -0.58555072271891
H           -3.17831574756411       -5.14837390741272       -0.91529531457463
H           -1.22095112951383       -3.64003468683000       -0.82202121306878
H            0.45974396553250       -1.46116917522790       -0.60212488806099
H            1.67381618716475        2.68634089123187       -1.43900258036798
H            9.04725542904971       -1.01850565541044        0.91318040971824
H            7.44550603608452       -2.74728241342069        1.69629604776054
H            4.99249375536380       -2.40519979753489        1.35837142706744
H            2.37797707884442       -0.97905269636334        0.73041740403879
H           -0.01046254622128        2.71619599916566        0.23507401169193
H           -2.44997764244095        2.46054611214510        0.41860063836654
H           -4.26475075841094        2.17403123219469       -1.24704347155914
H           -6.19996721777513        3.63690098668140       -0.80961673875953
