49
 energy: -81.553333716177 gnorm: 0.000029001380 xtb: 6.7.1 (edcfbbe)
C           -6.98200253806484        2.39661107022499        0.78953354713529
C           -6.78295301103626        1.25092351983388        1.54255470612685
C           -5.69056686359850        0.43786635506988        1.29987286875315
C           -4.79298728445680        0.76592600052575        0.28845862017865
N           -3.68473948596846       -0.06099465258552        0.03379369584838
C           -3.72793960843196       -1.42291064121791       -0.19189515866927
C           -4.82307734056992       -2.27285823613482       -0.26184877050585
C           -4.58753566100795       -3.60780973084618       -0.52986591785721
C           -3.29671916034353       -4.09312689748721       -0.73286029772922
C           -2.20508722941434       -3.24925191979436       -0.68424130235697
C           -2.41647892336804       -1.90246135868199       -0.41634493193465
C           -1.54481731079165       -0.76552871666378       -0.30978047786353
C           -0.17101842336968       -0.60717351116034       -0.40465764530475
C            0.37938021616495        0.65700363929225       -0.23122605622601
C            1.83222241145255        0.85128337794940       -0.33112211874415
C            2.36010456695814        1.97987360323250       -0.97196879236570
N            3.65085321518558        2.24636976879760       -1.10755447091485
C            4.47329011651183        1.35947436099881       -0.59040097613393
O            5.82419635412773        1.48912471459105       -0.63741968758777
C            6.32663927061684        0.39846128014580       -0.00882012263003
N            7.61795151915975        0.19258743008739        0.13441846100493
C            7.95104537442174       -0.92186042617301        0.77447543910109
C            7.03842985517333       -1.84262097143080        1.27869958051744
C            5.67879485052268       -1.62010971832797        1.12481267197879
C            5.30295591834044       -0.46251939214814        0.45975092392274
C            4.07632564083901        0.17462432912350        0.07413585439257
C            2.72141844690137       -0.08041030836731        0.20489896848339
C           -0.45608301428624        1.74752453447369        0.05316964792493
C           -1.82405172219061        1.61025893093403        0.16070973515203
C           -2.37296676335756        0.34976538793408       -0.03744699079489
C           -4.99571314657693        1.91451643887124       -0.47043601765422
C           -6.08543636538592        2.72683830641266       -0.21364055538478
H           -7.83360811504706        3.03104306809439        0.98447373451587
H           -7.47662927085982        0.99197861610888        2.32886427646542
H           -5.52083207189081       -0.44593253451931        1.89688112067065
H           -5.82764841296408       -1.90349670424070       -0.12170179442816
H           -5.42287446366639       -4.29040391640135       -0.58730928199975
H           -3.15421292443470       -5.14384142907505       -0.93889298497715
H           -1.20685600955059       -3.62343723236717       -0.85603145200054
H            0.45874834843463       -1.45382665628702       -0.63245548515662
H            1.70305334446272        2.71218173582024       -1.41986559050047
H            9.01529199407316       -1.07624052159649        0.88443854656426
H            7.39571383202928       -2.72392955523393        1.78675154997204
H            4.94398226503246       -2.31353102785920        1.50489290986572
H            2.36400027898803       -0.95861432054435        0.72094020037297
H           -0.00934262407146        2.71642730879720        0.21896898431096
H           -2.44512643124521        2.45860355149305        0.40445783514928
H           -4.30505330653266        2.15749223833743       -1.26432214190629
H           -6.23852494870348        3.61749714706550       -0.80510398396142
