49
 energy: -81.453553948090 gnorm: 0.000115793219 xtb: 6.7.1 (edcfbbe)
C           -6.23035512345441        3.47398195085055       -0.22669824527876
C           -6.30194048902098        2.61889888553458        0.86199943675962
C           -5.45866208099787        1.52658725631146        0.94777485033973
C           -4.53395549225156        1.28577720019224       -0.06587488065580
N           -3.67321957152638        0.18011033666618        0.01762958730705
C           -4.06617565054998       -1.12859418641486        0.24736910800217
C           -5.34078269016905       -1.65112873628575        0.40089429140103
C           -5.45569816144362       -3.01889240421826        0.60222820759284
C           -4.33527530934108       -3.84166444641276        0.63802503657124
C           -3.06040562238475       -3.32650916987623        0.45848062850068
C           -2.92241419579241       -1.96142558122999        0.25658858353557
C           -1.79129206193607       -1.10222244398955        0.01807783099313
C           -0.43276371842381       -1.32549591858834       -0.07894632125742
C            0.42595771538463       -0.23826994732042       -0.28643285731319
C            1.86361049878738       -0.44814351126490       -0.36988358738462
C            2.35002396892793       -1.59386773551854       -1.04677967218193
N            3.66049016789956       -1.86926735093648       -1.17530822651815
C            4.50584857288487       -1.01580939250910       -0.68063437041272
O            5.84470668076857       -1.21278328732969       -0.66980088409633
C            6.38059604362107       -0.11390725259537       -0.05770064245486
N            7.65952492335562        0.03734707589666        0.11732612147671
C            8.05194313997886        1.16879047646079        0.74535890635040
C            7.15632494660262        2.12513000459516        1.20408897405852
C            5.79574345018996        1.96675516641061        1.02300084395081
C            5.36432892089433        0.79374024674026        0.36073806352716
C            4.15052501026948        0.22084768522834       -0.04421428477506
C            2.77212148331208        0.47464113230840        0.12888672020971
C           -0.11033978123672        1.05930093955712       -0.40362810442119
C           -1.46335759667028        1.30118019523214       -0.31977131009970
C           -2.31296266022385        0.21385649474640       -0.12243491209076
C           -4.46259460585988        2.14398352716343       -1.16081305830221
C           -5.30998062320302        3.23402520512890       -1.23505727985269
H           -6.89035116390647        4.32577710749298       -0.28897325134539
H           -7.01309529894424        2.80678425235623        1.65226587984399
H           -5.49352511060538        0.87154397388703        1.80522216253308
H           -6.21628437762883       -1.02245745767153        0.35531196989831
H           -6.43609863194274       -3.45219440783035        0.72944374996465
H           -4.46276561238756       -4.90161045276450        0.79912487658807
H           -2.19483317379422       -3.97054482962685        0.47163795044924
H           -0.02753560133029       -2.31862542404824        0.03454599780646
H            1.69147923255992       -2.25371307112050       -1.58561558962935
H            9.11819495498048        1.27428215392689        0.86616443451094
H            7.54175133724808        3.00152333159591        1.70323949063713
H            5.08374183570688        2.70310169392983        1.36080339998848
H            2.44989716169257        1.33143429439324        0.69871923787755
H            0.56506606189418        1.88341376950466       -0.57257330617162
H           -1.85018724628262        2.30562125512741       -0.39314920754807
H           -3.75996445069596        1.93893503788985       -1.95455461855858
H           -5.25588795444102        3.89424503919857       -2.08761022339039
